@<TRIPOS>MOLECULE
tmp/1cpoA01.pdb
 133 127 0 0 0
SMALL
GASTEIGER

@<TRIPOS>ATOM
      1  N         54.2360   -4.1640   15.3040 N.3    23  THR23      -0.1203
      2  CA        54.1070   -5.4960   14.7220 C.3    23  THR23       0.1994
      3  C         52.6670   -5.8980   14.4070 C.2    23  THR23       0.2618
      4  O         52.4190   -7.0030   13.9310 O.2    23  THR23      -0.2717
      5  CB        54.7650   -6.5660   15.6180 C.3    23  THR23       0.1784
      6  OG1       54.1860   -6.5290   16.9300 O.3    23  THR23      -0.2211
      7  CG2       56.2540   -6.3130   15.7260 C.3    23  THR23       0.0376
      8  N         51.7160   -5.0200   14.7050 N.am   24  ASP24      -0.1959
      9  CA        50.3150   -5.3050   14.4210 C.3    24  ASP24       0.1840
     10  C         50.0560   -5.0630   12.9390 C.2    24  ASP24       0.2622
     11  O         50.7310   -4.2470   12.3120 O.2    24  ASP24      -0.2715
     12  CB        49.3920   -4.4230   15.2670 C.3    24  ASP24       0.1450
     13  CG        49.3330   -4.8560   16.7250 C.2    24  ASP24       0.3671
     14  OD1       49.6610   -6.0200   17.0350 O.co2  24  ASP24      -0.2456
     15  OD2       48.9350   -4.0290   17.5680 O.co2  24  ASP24      -0.2456
     16  N         49.1260   -5.8230   12.3750 N.am   25  SER25      -0.1950
     17  CA        48.7690   -5.7090   10.9690 C.3    25  SER25       0.1924
     18  C         47.5190   -4.8410   10.8300 C.2    25  SER25       0.2314
     19  O         46.5100   -5.0930   11.4940 O.2    25  SER25      -0.2863
     20  CB        48.4990   -7.1080   10.3960 C.3    25  SER25       0.2116
     21  OG        48.0380   -7.0590    9.0530 O.3    25  SER25      -0.2180
     22  N         45.3040  -10.3900   12.5440 N.3    46  ARG46      -0.1245
     23  CA        45.6770  -11.6580   11.9180 C.3    46  ARG46       0.1563
     24  C         44.6940  -12.7900   12.1800 C.2    46  ARG46       0.2260
     25  O         44.0090  -12.7980   13.2050 O.2    46  ARG46      -0.2867
     26  CB        47.0780  -12.0750   12.3690 C.3    46  ARG46       0.0307
     27  CG        48.1690  -11.1770   11.8340 C.3    46  ARG46       0.0489
     28  CD        49.5530  -11.6760   12.1810 C.3    46  ARG46       0.2205
     29  NE        50.5760  -10.8050   11.6080 N.pl3  46  ARG46      -0.0865
     30  CZ        51.1630   -9.8110   12.2660 C.cat  46  ARG46       0.5346
     31  NH1       50.8740   -9.5850   13.5410 N.pl3  46  ARG46       0.1354
     32  NH2       52.0710   -9.0680   11.6590 N.pl3  46  ARG46       0.1354
     33  N         47.4590  -13.1730   -3.0970 N.3    82  VAL82      -0.1231
     34  CA        48.6950  -12.7700   -2.4410 C.3    82  VAL82       0.1692
     35  C         49.4990  -13.9040   -1.8060 C.2    82  VAL82       0.2592
     36  O         50.7170  -13.9490   -1.9570 O.2    82  VAL82      -0.2718
     37  CB        48.4360  -11.6680   -1.3930 C.3    82  VAL82       0.0266
     38  CG1       49.7140  -11.3310   -0.6470 C.3    82  VAL82       0.0020
     39  CG2       47.8910  -10.4260   -2.0770 C.3    82  VAL82       0.0020
     40  N         48.8370  -14.8030   -1.0830 N.am   83  THR83      -0.1953
     41  CA        49.5420  -15.9010   -0.4200 C.3    83  THR83       0.1897
     42  C         49.8260  -17.0520   -1.3660 C.2    83  THR83       0.2313
     43  O         50.6280  -17.9370   -1.0610 O.2    83  THR83      -0.2863
     44  CB        48.7630  -16.4500    0.7890 C.3    83  THR83       0.1794
     45  OG1       47.5550  -17.0750    0.3390 O.3    83  THR83      -0.2208
     46  CG2       48.4290  -15.3330    1.7670 C.3    83  THR83       0.0378
     47  N         44.5330  -14.2740    6.3890 N.3    92  VAL92      -0.1231
     48  CA        45.8810  -14.2490    6.9420 C.3    92  VAL92       0.1692
     49  C         46.1640  -12.9990    7.7680 C.2    92  VAL92       0.2592
     50  O         46.5560  -13.0960    8.9340 O.2    92  VAL92      -0.2718
     51  CB        46.9360  -14.4460    5.8230 C.3    92  VAL92       0.0266
     52  CG1       48.3400  -14.2900    6.3700 C.3    92  VAL92       0.0020
     53  CG2       46.7780  -15.8320    5.2110 C.3    92  VAL92       0.0020
     54  N         45.9740  -11.8290    7.1690 N.am   93  ASN93      -0.1974
     55  CA        46.1810  -10.5730    7.8830 C.3    93  ASN93       0.1688
     56  C         45.4590   -9.4520    7.1490 C.2    93  ASN93       0.2292
     57  O         44.9140   -9.6730    6.0590 O.2    93  ASN93      -0.2864
     58  CB        47.6790  -10.2620    8.1070 C.3    93  ASN93       0.1181
     59  CG        48.4620  -10.0120    6.8090 C.2    93  ASN93       0.2629
     60  OD1       47.9200   -9.5560    5.7960 O.2    93  ASN93      -0.2716
     61  ND2       49.7670  -10.2710    6.8660 N.am   93  ASN93      -0.0877
     62  N         46.9040   -6.4960    6.3050 N.3    95  THR95      -0.1203
     63  CA        47.8340   -5.8190    5.4110 C.3    95  THR95       0.1994
     64  C         47.7650   -6.2340    3.9420 C.2    95  THR95       0.2617
     65  O         47.8610   -5.3860    3.0610 O.2    95  THR95      -0.2717
     66  CB        49.2800   -5.9470    5.9180 C.3    95  THR95       0.1784
     67  OG1       49.3350   -5.5160    7.2830 O.3    95  THR95      -0.2211
     68  CG2       50.2230   -5.0760    5.1020 C.3    95  THR95       0.0376
     69  N         47.5680   -7.5180    3.6660 N.am   96  LEU96      -0.1979
     70  CA        47.5080   -7.9730    2.2830 C.3    96  LEU96       0.1596
     71  C         46.3550   -7.3440    1.4830 C.2    96  LEU96       0.2287
     72  O         46.3360   -7.4100    0.2510 O.2    96  LEU96      -0.2864
     73  CB        47.4810   -9.5110    2.2120 C.3    96  LEU96       0.0297
     74  CG        46.3750  -10.3300    2.8780 C.3    96  LEU96       0.0022
     75  CD1       45.0990  -10.2840    2.0540 C.3    96  LEU96       0.0001
     76  CD2       46.8430  -11.7790    3.0200 C.3    96  LEU96       0.0001
     77  N         47.1130   -4.8190   -1.4760 N.3    99  GLU99      -0.1245
     78  CA        47.6940   -5.2600   -2.7520 C.3    99  GLU99       0.1567
     79  C         47.1080   -4.3300   -3.8180 C.2    99  GLU99       0.2260
     80  O         45.8900   -4.2560   -3.9710 O.2    99  GLU99      -0.2867
     81  CB        47.2840   -6.7160   -3.0300 C.3    99  GLU99       0.0388
     82  CG        47.5750   -7.2380   -4.4440 C.3    99  GLU99       0.1160
     83  CD        49.0530   -7.2960   -4.7890 C.2    99  GLU99       0.3649
     84  OE1       49.8960   -7.3710   -3.8660 O.co2  99  GLU99      -0.2457
     85  OE2       49.3720   -7.2630   -5.9980 O.co2  99  GLU99      -0.2457
     86  N         51.9060  -12.8590  -10.6770 N.3   277  THR277     -0.1204
     87  CA        52.6690  -12.5970   -9.4640 C.3   277  THR277      0.1979
     88  C         52.1420  -11.2970   -8.8610 C.2   277  THR277      0.2460
     89  O         51.8950  -10.3320   -9.5890 O.2   277  THR277     -0.2732
     90  CB        54.1840  -12.4430   -9.7710 C.3   277  THR277      0.1783
     91  OG1       54.3830  -11.4250  -10.7640 O.3   277  THR277     -0.2211
     92  CG2       54.7650  -13.7580  -10.2840 C.3   277  THR277      0.0376
     93  N         51.9190  -11.2640   -7.5350 N.am  278  PRO278     -0.2717
     94  CA        51.4140  -10.0420   -6.9010 C.3   278  PRO278      0.1535
     95  C         52.4970   -8.9840   -6.6970 C.2   278  PRO278      0.2599
     96  O         53.6830   -9.3090   -6.5810 O.2   278  PRO278     -0.2715
     97  CB        50.8880  -10.5540   -5.5630 C.3   278  PRO278      0.0310
     98  CG        51.8560  -11.6360   -5.2320 C.3   278  PRO278      0.0237
     99  CD        51.9900  -12.3660   -6.5580 C.3   278  PRO278      0.0939
    100  N         52.0880   -7.7160   -6.7040 N.am  279  PHE279     -0.1960
    101  CA        53.0110   -6.6100   -6.4650 C.3   279  PHE279      0.1771
    102  C         53.3700   -6.6960   -4.9840 C.2   279  PHE279      0.2619
    103  O         52.5690   -7.1770   -4.1770 O.2   279  PHE279     -0.2715
    104  CB        52.3270   -5.2620   -6.7060 C.3   279  PHE279      0.0574
    105  CG        51.9720   -4.9910   -8.1380 C.ar  279  PHE279     -0.0200
    106  CD1       52.9030   -4.4210   -9.0010 C.ar  279  PHE279     -0.0042
    107  CD2       50.6860   -5.2430   -8.6090 C.ar  279  PHE279     -0.0042
    108  CE1       52.5580   -4.0990  -10.3180 C.ar  279  PHE279     -0.0003
    109  CE2       50.3260   -4.9270   -9.9220 C.ar  279  PHE279     -0.0003
    110  CZ        51.2640   -4.3520  -10.7790 C.ar  279  PHE279     -0.0000
    111  N         54.5500   -6.2090   -4.6210 N.am  280  LEU280     -0.1963
    112  CA        54.9820   -6.2350   -3.2290 C.3   280  LEU280      0.1728
    113  C         54.1820   -5.2530   -2.3690 C.2   280  LEU280      0.2616
    114  O         53.8220   -4.1630   -2.8200 O.2   280  LEU280     -0.2715
    115  CB        56.4670   -5.9060   -3.1280 C.3   280  LEU280      0.0311
    116  CG        57.4240   -6.9400   -3.7200 C.3   280  LEU280      0.0022
    117  CD1       58.8480   -6.4090   -3.6670 C.3   280  LEU280      0.0001
    118  CD2       57.3100   -8.2650   -2.9690 C.3   280  LEU280      0.0001
    119  N         53.8940   -5.6620   -1.1370 N.am  281  LEU281     -0.1977
    120  CA        53.1560   -4.8430   -0.1830 C.3   281  LEU281      0.1596
    121  C         54.1080   -3.8530    0.4920 C.2   281  LEU281      0.2287
    122  O         55.2830   -4.1620    0.7100 O.2   281  LEU281     -0.2864
    123  CB        52.5390   -5.7350    0.9020 C.3   281  LEU281      0.0297
    124  CG        51.2120   -6.4940    0.7660 C.3   281  LEU281      0.0022
    125  CD1       50.6130   -6.3870   -0.6080 C.3   281  LEU281      0.0001
    126  CD2       51.4230   -7.9350    1.1620 C.3   281  LEU281      0.0001
    127  N         55.7420   -2.1210    3.5240 N.3   283  THR283     -0.1218
    128  CA        55.9970   -2.6390    4.8710 C.3   283  THR283      0.1862
    129  C         55.9130   -1.6490    6.0340 C.2   283  THR283      0.2287
    130  O         56.2840   -1.9850    7.1580 O.2   283  THR283     -0.2866
    131  CB        57.3960   -3.2750    4.9370 C.3   283  THR283      0.1770
    132  OG1       58.3720   -2.2950    4.5440 O.3   283  THR283     -0.2211
    133  CG2       57.4780   -4.4910    4.0220 C.3   283  THR283      0.0375
@<TRIPOS>BOND
     1   110   108   ar
     2   110   109   ar
     3    91    90    1
     4    86    87    1
     5   108   106   ar
     6    92    90    1
     7   109   107   ar
     8    90    87    1
     9    89    88    2
    10    87    88    1
    11   106   105   ar
    12    88    93   am
    13   107   105   ar
    14   105   104    1
    15    93    94    1
    16    93    99    1
    17    94    95    1
    18    94    97    1
    19   104   101    1
    20   100    95   am
    21   100   101    1
    22    95    96    2
    23    99    98    1
    24   101   102    1
    25    85    83   ar
    26    97    98    1
    27   102   111   am
    28   102   103    2
    29    83    82    1
    30    83    84   ar
    31   111   112    1
    32    82    81    1
    33    80    79    2
    34    79    78    1
    35   116   117    1
    36   116   115    1
    37   116   118    1
    38   112   115    1
    39   112   113    1
    40    33    34    1
    41    81    78    1
    42   114   113    2
    43    78    77    1
    44    34    35    1
    45    34    37    1
    46   113   119   am
    47    39    37    1
    48    36    35    2
    49    35    40   am
    50    37    38    1
    51    42    43    2
    52    42    41    1
    53   119   120    1
    54    40    41    1
    55   125   124    1
    56    41    44    1
    57   120   121    1
    58   120   123    1
    59    72    71    2
    60    45    44    1
    61   121   122    2
    62   124   123    1
    63   124   126    1
    64    44    46    1
    65    71    70    1
    66    75    74    1
    67    73    70    1
    68    73    74    1
    69    70    69    1
    70    74    76    1
    71    65    64    2
    72   127   128    1
    73    69    64   am
    74    64    63    1
    75   133   131    1
    76   132   131    1
    77   128   131    1
    78   128   129    1
    79    68    66    1
    80    53    51    1
    81    63    66    1
    82    63    62    1
    83    60    59    2
    84    51    52    1
    85    51    48    1
    86    66    67    1
    87   129   130    2
    88    57    56    2
    89    47    48    1
    90    59    61   am
    91    59    58    1
    92    48    49    1
    93    56    55    1
    94    54    49   am
    95    54    55    1
    96    49    50    2
    97    55    58    1
    98    21    20    1
    99    20    17    1
   100    18    17    1
   101    18    19    2
   102    17    16    1
   103    29    28    1
   104    29    30    2
   105    32    30    1
   106    27    28    1
   107    27    26    1
   108    23    24    1
   109    23    26    1
   110    23    22    1
   111    24    25    2
   112    30    31    1
   113    11    10    2
   114    16    10   am
   115    10     9    1
   116     4     3    2
   117     3     8   am
   118     3     2    1
   119     9     8    1
   120     9    12    1
   121     2     1    1
   122     2     5    1
   123    12    13    1
   124     5     7    1
   125     5     6    1
   126    13    14   ar
   127    13    15   ar
