@<TRIPOS>MOLECULE
tmp/1cpsA00.pdb
 182 174 0 0 0
SMALL
GASTEIGER

@<TRIPOS>ATOM
      1  N         -2.0010   21.5630   -5.2890 N.3    69  HIS69      -0.1241
      2  CA        -1.3780   22.2880   -4.1190 C.3    69  HIS69       0.1621
      3  C         -2.0470   21.6230   -2.9490 C.2    69  HIS69       0.2264
      4  O         -3.2270   21.8650   -2.6210 O.2    69  HIS69      -0.2867
      5  CB        -1.5330   23.7980   -4.1190 C.3    69  HIS69       0.0745
      6  CG        -0.6300   24.4620   -5.1020 C.ar   69  HIS69       0.0817
      7  ND1       -0.9980   25.5490   -5.8510 N.ar   69  HIS69      -0.2268
      8  CD2        0.6600   24.1000   -5.4760 C.ar   69  HIS69       0.1154
      9  CE1        0.0300   25.8510   -6.6000 C.ar   69  HIS69       0.1986
     10  NE2        1.0910   25.0060   -6.4130 N.ar   69  HIS69      -0.2212
     11  N         -2.1740   21.6840    0.4210 N.3    71  ARG71      -0.1231
     12  CA        -2.8890   22.3480    1.5450 C.3    71  ARG71       0.1694
     13  C         -4.3000   22.8310    1.2640 C.2    71  ARG71       0.2591
     14  O         -5.0480   23.1330    2.2470 O.2    71  ARG71      -0.2718
     15  CB        -2.0590   23.6160    1.9190 C.3    71  ARG71       0.0321
     16  CG        -2.0620   24.5830    0.7490 C.3    71  ARG71       0.0489
     17  CD        -1.2190   25.7910    1.0300 C.3    71  ARG71       0.2205
     18  NE        -1.2290   26.7570   -0.0940 N.pl3  71  ARG71      -0.0865
     19  CZ        -0.4590   27.8440   -0.0470 C.cat  71  ARG71       0.5346
     20  NH1        0.3890   27.9650    0.9830 N.pl3  71  ARG71       0.1354
     21  NH2       -0.4870   28.7500   -1.0300 N.pl3  71  ARG71       0.1354
     22  N         -4.6590   22.9520    0.0470 N.am   72  GLU72      -0.1979
     23  CA        -5.9420   23.4350   -0.4210 C.3    72  GLU72       0.1602
     24  C         -6.9760   22.3480   -0.4210 C.2    72  GLU72       0.2287
     25  O         -7.5670   21.9250   -1.4510 O.2    72  GLU72      -0.2864
     26  CB        -5.7080   24.0390   -1.8250 C.3    72  GLU72       0.0415
     27  CG        -4.6290   25.1260   -1.7790 C.3    72  GLU72       0.1163
     28  CD        -4.0450   25.6100   -3.0890 C.2    72  GLU72       0.3649
     29  OE1       -4.7900   25.3080   -4.1190 O.co2  72  GLU72      -0.2457
     30  OE2       -3.0050   26.2740   -3.1360 O.co2  72  GLU72      -0.2457
     31  N          2.4210   22.7100    0.4680 N.3   127  ARG127     -0.1245
     32  CA         1.8220   22.8920   -0.8890 C.3   127  ARG127      0.1563
     33  C          2.5940   22.2880   -2.0600 C.2   127  ARG127      0.2260
     34  O          1.9010   21.9860   -3.0890 O.2   127  ARG127     -0.2867
     35  CB         1.6630   24.4020   -1.2640 C.3   127  ARG127      0.0307
     36  CG         2.9320   25.2470   -1.0770 C.3   127  ARG127      0.0489
     37  CD         3.2780   26.1530   -2.1530 C.3   127  ARG127      0.2205
     38  NE         2.2260   26.8780   -2.8080 N.pl3 127  ARG127     -0.0865
     39  CZ         2.5090   27.7240   -3.7910 C.cat 127  ARG127      0.5346
     40  NH1        3.8260   28.0860   -3.9790 N.pl3 127  ARG127      0.1354
     41  NH2        1.6300   28.3280   -4.5870 N.pl3 127  ARG127      0.1354
     42  N          2.4140   23.7370   -9.8290 N.3   144  ASN144     -0.1225
     43  CA         1.7020   24.6430  -10.7190 C.3   144  ASN144      0.1785
     44  C          2.6660   25.6700  -11.3740 C.2   144  ASN144      0.2597
     45  O          2.2220   26.6970  -11.9360 O.2   144  ASN144     -0.2718
     46  CB         0.4800   25.3080  -10.0630 C.3   144  ASN144      0.1169
     47  CG        -0.4020   25.7910  -11.2340 C.2   144  ASN144      0.2627
     48  OD1       -0.4240   25.1870  -12.2630 O.2   144  ASN144     -0.2716
     49  ND2       -1.1050   26.8780  -11.0000 N.am  144  ASN144     -0.0877
     50  N          3.9470   25.3680  -11.2800 N.am  145  ARG145     -0.1979
     51  CA         5.0020   26.2140  -11.8420 C.3   145  ARG145      0.1597
     52  C          6.0810   25.4280  -12.5910 C.2   145  ARG145      0.2287
     53  O          7.0790   25.9120  -13.1060 O.2   145  ARG145     -0.2864
     54  CB         5.6440   27.1800  -10.8120 C.3   145  ARG145      0.0334
     55  CG         4.8100   28.4480  -10.7660 C.3   145  ARG145      0.0492
     56  CD         5.3090   29.4750   -9.8290 C.3   145  ARG145      0.2205
     57  NE         4.3510   30.3810   -9.2210 N.pl3 145  ARG145     -0.0865
     58  CZ         3.0470   30.4420   -9.1270 C.cat 145  ARG145      0.5346
     59  NH1        2.2130   29.7770   -9.8760 N.pl3 145  ARG145      0.1354
     60  NH2        2.5510   31.1660   -8.0980 N.pl3 145  ARG145      0.1354
     61  N         -8.2880   25.0660   -7.4420 N.3   196  HIS196     -0.1226
     62  CA        -7.6120   25.7300   -6.2720 C.3   196  HIS196      0.1752
     63  C         -9.0170   26.2140   -5.8040 C.2   196  HIS196      0.2597
     64  O        -10.0120   26.0320   -6.5060 O.2   196  HIS196     -0.2718
     65  CB        -6.6670   26.7570   -6.7870 C.3   196  HIS196      0.0759
     66  CG        -5.5810   26.1530   -7.5830 C.ar  196  HIS196      0.0818
     67  ND1       -4.2980   26.0930   -7.1150 N.ar  196  HIS196     -0.2268
     68  CD2       -5.5720   25.6100   -8.8460 C.ar  196  HIS196      0.1154
     69  CE1       -3.5560   25.5490   -8.0510 C.ar  196  HIS196      0.1986
     70  NE2       -4.2950   25.1870   -9.1270 N.ar  196  HIS196     -0.2212
     71  N         -8.7500   26.5760   -4.6810 N.am  197  SER197     -0.1938
     72  CA        -8.3330   26.9990   -3.5110 C.3   197  SER197      0.2055
     73  C         -7.6760   28.3280   -2.9960 C.2   197  SER197      0.2643
     74  O         -6.6150   28.7500   -2.8080 O.2   197  SER197     -0.2714
     75  CB        -7.7430   25.9720   -2.4810 C.3   197  SER197      0.2130
     76  OG        -8.1140   26.5760   -1.2170 O.3   197  SER197     -0.2179
     77  N         -8.6040   29.1730   -2.6210 N.am  198  TYR198     -0.1973
     78  CA        -8.8830   30.4420   -2.0600 C.3   198  TYR198      0.1639
     79  C         -8.4490   31.7700   -2.6210 C.2   198  TYR198      0.2290
     80  O         -7.3720   32.1330   -2.9490 O.2   198  TYR198     -0.2864
     81  CB        -8.7220   30.3210   -0.5150 C.3   198  TYR198      0.0560
     82  CG        -7.8310   31.3480    0.1870 C.ar  198  TYR198     -0.0198
     83  CD1       -8.0960   32.6760    0.2340 C.ar  198  TYR198     -0.0009
     84  CD2       -6.6750   30.8640    0.8430 C.ar  198  TYR198     -0.0009
     85  CE1       -7.2440   33.5820    0.8430 C.ar  198  TYR198      0.0417
     86  CE2       -5.7720   31.7700    1.4510 C.ar  198  TYR198      0.0417
     87  CZ        -6.0880   33.0990    1.4980 C.ar  198  TYR198      0.1957
     88  OH        -5.2880   34.0050    2.1060 O.3   198  TYR198     -0.2866
     89  N        -10.1340   32.3140  -13.5270 N.3   203  LEU203     -0.1245
     90  CA        -9.0360   32.6760  -14.4170 C.3   203  LEU203      0.1561
     91  C         -8.9240   31.8910  -15.6800 C.2   203  LEU203      0.2260
     92  O         -9.2400   30.6830  -15.6330 O.2   203  LEU203     -0.2867
     93  CB        -7.7500   32.4950  -13.5740 C.3   203  LEU203      0.0270
     94  CG        -7.2630   33.4620  -12.5440 C.3   203  LEU203      0.0019
     95  CD1       -8.3460   34.4880  -12.1700 C.3   203  LEU203      0.0001
     96  CD2       -6.7550   32.7970  -11.2800 C.3   203  LEU203      0.0001
     97  N         -4.9830   35.4550  -15.7740 N.3   243  ILE243     -0.1245
     98  CA        -4.1520   35.2740  -14.6040 C.3   243  ILE243      0.1561
     99  C         -3.2700   36.4820  -14.2290 C.2   243  ILE243      0.2260
    100  O         -3.3640   37.0250  -13.1060 O.2   243  ILE243     -0.2867
    101  CB        -3.2030   34.0660  -14.7440 C.3   243  ILE243      0.0252
    102  CG1       -4.0460   32.7970  -15.0250 C.3   243  ILE243      0.0019
    103  CG2       -2.3270   33.8840  -13.5270 C.3   243  ILE243      0.0019
    104  CD1       -3.2160   31.5890  -15.4460 C.3   243  ILE243      0.0001
    105  N         -4.4260   38.5960  -10.9060 N.3   247  ILE247     -0.1231
    106  CA        -3.5950   38.2940   -9.7360 C.3   247  ILE247      0.1692
    107  C         -2.2150   38.9580  -10.0170 C.2   247  ILE247      0.2592
    108  O         -1.9930   40.1060   -9.7360 O.2   247  ILE247     -0.2718
    109  CB        -3.3280   36.8440   -9.4080 C.3   247  ILE247      0.0266
    110  CG1       -4.5680   35.9980   -9.4080 C.3   247  ILE247      0.0019
    111  CG2       -2.6250   36.7230   -8.0510 C.3   247  ILE247      0.0020
    112  CD1       -4.2700   34.4880   -9.3150 C.3   247  ILE247      0.0001
    113  N         -1.3720   38.1120  -10.5320 N.am  248  TYR248     -0.1976
    114  CA         0.0140   38.4750  -10.8590 C.3   248  TYR248      0.1639
    115  C          0.6590   37.5080  -11.8420 C.2   248  TYR248      0.2290
    116  O          0.0300   36.4820  -12.1700 O.2   248  TYR248     -0.2864
    117  CB         0.8270   38.4140   -9.5490 C.3   248  TYR248      0.0560
    118  CG         0.6200   37.1460   -8.7530 C.ar  248  TYR248     -0.0198
    119  CD1        0.4460   35.9380   -9.4080 C.ar  248  TYR248     -0.0009
    120  CD2        0.6440   37.1460   -7.3490 C.ar  248  TYR248     -0.0009
    121  CE1        0.2520   34.7300   -8.7060 C.ar  248  TYR248      0.0417
    122  CE2        0.4500   35.9380   -6.6470 C.ar  248  TYR248      0.0417
    123  CZ         0.2250   34.7300   -7.3020 C.ar  248  TYR248      0.1957
    124  OH         0.0360   33.5820   -6.6470 O.3   248  TYR248     -0.2866
    125  N          2.8060   34.6700  -13.2460 N.3   250  ALA250     -0.1245
    126  CA         3.1070   33.2800  -12.7780 C.3   250  ALA250      0.1562
    127  C          3.4780   32.4950  -14.0420 C.2   250  ALA250      0.2260
    128  O          2.6750   32.4950  -15.0250 O.2   250  ALA250     -0.2867
    129  CB         1.9300   32.7370  -12.0760 C.3   250  ALA250      0.0290
    130  N          2.5170   27.4820  -15.3990 N.3   253  GLY253     -0.1210
    131  CA         1.1700   27.1800  -14.9780 C.3   253  GLY253      0.1956
    132  C          0.5100   26.1530  -15.8680 C.2   253  GLY253      0.2613
    133  O          0.7710   26.0320  -17.0850 O.2   253  GLY253     -0.2717
    134  N         -0.3450   25.3680  -15.2590 N.am  254  SER254     -0.1938
    135  CA        -1.1510   24.2810  -15.8210 C.3   254  SER254      0.2055
    136  C         -1.9750   24.7040  -17.0380 C.2   254  SER254      0.2643
    137  O         -1.8810   24.1600  -18.1610 O.2   254  SER254     -0.2714
    138  CB        -1.9230   23.7370  -14.6510 C.3   254  SER254      0.2130
    139  OG        -3.0240   22.8920  -14.9310 O.3   254  SER254     -0.2179
    140  N         -2.7810   25.7300  -16.8040 N.am  255  ILE255     -0.1963
    141  CA        -3.6930   26.3340  -17.7400 C.3   255  ILE255      0.1727
    142  C         -3.0180   26.9990  -18.9570 C.2   255  ILE255      0.2616
    143  O         -3.6540   26.9380  -20.0330 O.2   255  ILE255     -0.2715
    144  CB        -4.5200   27.3610  -16.9440 C.3   255  ILE255      0.0290
    145  CG1       -5.5090   26.5160  -16.1020 C.3   255  ILE255      0.0022
    146  CG2       -5.2380   28.3880  -17.7870 C.3   255  ILE255      0.0023
    147  CD1       -6.4390   25.6100  -16.8970 C.3   255  ILE255      0.0001
    148  N         -1.8530   27.5420  -18.7700 N.am  256  ASP256     -0.1971
    149  CA        -1.1390   28.2070  -19.8930 C.3   256  ASP256      0.1709
    150  C         -0.7010   27.1200  -20.8760 C.2   256  ASP256      0.2293
    151  O         -0.8530   27.2400  -22.0930 O.2   256  ASP256     -0.2864
    152  CB        -0.0100   29.1130  -19.4250 C.3   256  ASP256      0.1436
    153  CG        -0.4760   30.3210  -18.6290 C.2   256  ASP256      0.3671
    154  OD1       -1.7290   30.5620  -18.5360 O.co2 256  ASP256     -0.2456
    155  OD2        0.3880   31.0460  -18.1140 O.co2 256  ASP256     -0.2456
    156  N         -8.9270   28.0860  -14.4630 N.3   268  THR268     -0.1218
    157  CA        -8.4250   27.7840  -13.1530 C.3   268  THR268      0.1862
    158  C         -9.4830   28.4480  -12.1700 C.2   268  THR268      0.2287
    159  O         -9.8210   29.5960  -12.3570 O.2   268  THR268     -0.2866
    160  CB        -7.0260   28.1460  -12.7780 C.3   268  THR268      0.1770
    161  OG1       -6.1780   27.1800  -13.3400 O.3   268  THR268     -0.2211
    162  CG2       -6.7550   28.1460  -11.2800 C.3   268  THR268      0.0375
    163  N        -10.3560   29.1730   -8.2380 N.3   270  GLU270     -0.1245
    164  CA        -9.7500   29.4750   -6.9270 C.3   270  GLU270      0.1567
    165  C        -10.9580   29.5960   -5.9910 C.2   270  GLU270      0.2260
    166  O        -11.6180   30.6830   -6.0850 O.2   270  GLU270     -0.2867
    167  CB        -8.8900   30.6830   -6.7870 C.3   270  GLU270      0.0388
    168  CG        -7.6430   30.9250   -7.6300 C.3   270  GLU270      0.1160
    169  CD        -6.4630   30.2000   -7.1610 C.2   270  GLU270      0.3649
    170  OE1       -6.5690   29.7770   -5.9440 O.co2 270  GLU270     -0.2457
    171  OE2       -5.4410   30.0190   -7.8640 O.co2 270  GLU270     -0.2457
    172  N         -6.8910   28.5090    3.6980 N.3   279  PHE279     -0.1241
    173  CA        -6.6990   27.1200    3.4170 C.3   279  PHE279      0.1605
    174  C         -7.3050   26.2140    4.4930 C.2   279  PHE279      0.2264
    175  O         -7.5270   25.0060    4.2130 O.2   279  PHE279     -0.2867
    176  CB        -5.1760   26.8180    3.2300 C.3   279  PHE279      0.0534
    177  CG        -4.4800   27.6630    2.2470 C.ar  279  PHE279     -0.0203
    178  CD1       -4.7690   27.5420    0.8890 C.ar  279  PHE279     -0.0042
    179  CD2       -3.5060   28.5690    2.7150 C.ar  279  PHE279     -0.0042
    180  CE1       -4.0780   28.3880   -0.0470 C.ar  279  PHE279     -0.0003
    181  CE2       -2.8160   29.3540    1.7790 C.ar  279  PHE279     -0.0003
    182  CZ        -3.1050   29.2940    0.4210 C.ar  279  PHE279     -0.0000
@<TRIPOS>BOND
     1   151   150    2
     2   150   149    1
     3   143   142    2
     4   149   152    1
     5   149   148    1
     6   152   153    1
     7   142   148   am
     8   142   141    1
     9   153   154   ar
    10   153   155   ar
    11   137   136    2
    12   146   144    1
    13   141   144    1
    14   141   140    1
    15   133   132    2
    16   136   140   am
    17   136   135    1
    18   144   145    1
    19   147   145    1
    20   132   134   am
    21   132   131    1
    22   135   134    1
    23   135   138    1
    24    97    98    1
    25    91    92    2
    26    91    90    1
    27   104   102    1
    28   130   131    1
    29   102   101    1
    30   128   127    2
    31   139   138    1
    32   101    98    1
    33   101   103    1
    34    98    99    1
    35   156   157    1
    36    90    93    1
    37    90    89    1
    38    99   100    2
    39   127   126    1
    40    93    94    1
    41   161   160    1
    42   125   126    1
    43   157   160    1
    44   157   158    1
    45    53    52    2
    46   126   129    1
    47   160   162    1
    48    52    51    1
    49    94    95    1
    50    94    96    1
    51   159   158    2
    52    48    47    2
    53   116   115    2
    54    45    44    2
    55   115   114    1
    56    51    50    1
    57    51    54    1
    58    44    50   am
    59    44    43    1
    60    47    49   am
    61    47    46    1
    62   105   106    1
    63   114   113    1
    64   114   117    1
    65    54    55    1
    66    55    56    1
    67    43    46    1
    68    43    42    1
    69   113   107   am
    70   107   108    2
    71   107   106    1
    72    59    58    1
    73    56    57    1
    74   106   109    1
    75   117   118    1
    76   110   109    1
    77   110   112    1
    78   109   111    1
    79   119   118   ar
    80   119   121   ar
    81    57    58    2
    82    58    60    1
    83    70    68   ar
    84    70    69   ar
    85    68    66   ar
    86   118   120   ar
    87   121   123   ar
    88   163   164    1
    89    69    67   ar
    90   171   169   ar
    91   168   169    1
    92   168   167    1
    93    66    67   ar
    94    66    65    1
    95    61    62    1
    96   120   122   ar
    97   123   124    1
    98   123   122   ar
    99   169   170   ar
   100   164   167    1
   101   164   165    1
   102    65    62    1
   103     9    10   ar
   104     9     7   ar
   105    64    63    2
   106    10     8   ar
   107    62    63    1
   108   166   165    2
   109     7     6   ar
   110    63    71   am
   111     8     6   ar
   112     1     2    1
   113     6     5    1
   114    71    72    1
   115    41    39    1
   116     5     2    1
   117     2     3    1
   118    29    28   ar
   119    40    39    1
   120    39    38    2
   121    72    73    1
   122    72    75    1
   123    30    28   ar
   124    34    33    2
   125    28    27    1
   126    73    74    2
   127    73    77   am
   128    80    79    2
   129     3     4    2
   130    38    37    1
   131    79    78    1
   132    77    78    1
   133    75    76    1
   134    37    36    1
   135    78    81    1
   136    33    32    1
   137    26    27    1
   138    26    23    1
   139    25    24    2
   140    35    36    1
   141    35    32    1
   142    21    19    1
   143    32    31    1
   144    81    82    1
   145    23    24    1
   146    23    22    1
   147    18    19    2
   148    18    17    1
   149    19    20    1
   150   180   182   ar
   151   180   178   ar
   152    22    13   am
   153    82    83   ar
   154    82    84   ar
   155    83    85   ar
   156    11    12    1
   157   182   181   ar
   158    16    17    1
   159    16    15    1
   160    84    86   ar
   161    85    87   ar
   162   178   177   ar
   163    13    12    1
   164    13    14    2
   165    86    87   ar
   166    87    88    1
   167    12    15    1
   168   181   179   ar
   169   177   179   ar
   170   177   176    1
   171   176   173    1
   172   173   172    1
   173   173   174    1
   174   175   174    2
