@<TRIPOS>MOLECULE
tmp/1cpuA01.pdb
 105 104 0 0 0
SMALL
GASTEIGER

@<TRIPOS>ATOM
      1  N         19.5410   23.5600   38.5330 N.3    57  TRP57      -0.1227
      2  CA        19.1240   23.7290   39.9180 C.3    57  TRP57       0.1737
      3  C         18.7400   22.3790   40.5570 C.2    57  TRP57       0.2595
      4  O         19.0100   22.1460   41.7370 O.2    57  TRP57      -0.2718
      5  CB        17.9340   24.6960   40.0030 C.3    57  TRP57       0.0564
      6  CG        16.7010   24.2030   39.3010 C.ar   57  TRP57       0.0003
      7  CD1       16.3520   24.4410   38.0010 C.ar   57  TRP57       0.0946
      8  CD2       15.6770   23.3480   39.8420 C.ar   57  TRP57       0.0152
      9  NE1       15.1790   23.7900   37.6990 N.ar   57  TRP57      -0.2442
     10  CE2       14.7430   23.1110   38.8060 C.ar   57  TRP57       0.0810
     11  CE3       15.4580   22.7630   41.0980 C.ar   57  TRP57       0.0012
     12  CZ2       13.6010   22.3110   38.9900 C.ar   57  TRP57       0.0191
     13  CZ3       14.3230   21.9650   41.2810 C.ar   57  TRP57       0.0001
     14  CH2       13.4110   21.7490   40.2290 C.ar   57  TRP57       0.0015
     15  N         18.1550   21.4740   39.7710 N.am   58  TRP58      -0.1976
     16  CA        17.6990   20.1970   40.3260 C.3    58  TRP58       0.1640
     17  C         18.8150   19.2120   40.6370 C.2    58  TRP58       0.2290
     18  O         18.5300   18.1370   41.1530 O.2    58  TRP58      -0.2864
     19  CB        16.6410   19.5240   39.4430 C.3    58  TRP58       0.0576
     20  CG        16.8710   19.5240   37.9670 C.ar   58  TRP58       0.0006
     21  CD1       16.2160   20.2880   37.0370 C.ar   58  TRP58       0.0946
     22  CD2       17.7030   18.6210   37.2280 C.ar   58  TRP58       0.0152
     23  NE1       16.5820   19.9090   35.7670 N.ar   58  TRP58      -0.2442
     24  CE2       17.4910   18.8890   35.8530 C.ar   58  TRP58       0.0810
     25  CE3       18.6020   17.6120   37.5910 C.ar   58  TRP58       0.0012
     26  CZ2       18.1470   18.1780   34.8430 C.ar   58  TRP58       0.0191
     27  CZ3       19.2540   16.9050   36.5850 C.ar   58  TRP58       0.0001
     28  CH2       19.0210   17.1930   35.2260 C.ar   58  TRP58       0.0015
     29  N         18.9340   17.9690   44.1930 N.3    61  TYR61      -0.1227
     30  CA        17.9540   17.0290   44.7100 C.3    61  TYR61       0.1736
     31  C         18.3720   15.5850   44.4270 C.2    61  TYR61       0.2595
     32  O         17.5610   14.6590   44.4270 O.2    61  TYR61      -0.2718
     33  CB        16.5670   17.3800   44.1570 C.3    61  TYR61       0.0548
     34  CG        16.0470   18.6460   44.8170 C.ar   61  TYR61      -0.0200
     35  CD1       16.8320   19.7970   44.8550 C.ar   61  TYR61      -0.0009
     36  CD2       14.7970   18.6920   45.4330 C.ar   61  TYR61      -0.0009
     37  CE1       16.3940   20.9600   45.4870 C.ar   61  TYR61       0.0417
     38  CE2       14.3460   19.8630   46.0720 C.ar   61  TYR61       0.0417
     39  CZ        15.1560   20.9890   46.0900 C.ar   61  TYR61       0.1957
     40  OH        14.7490   22.1510   46.7000 O.3    61  TYR61      -0.2866
     41  N         19.6760   15.4240   44.2130 N.am   62  GLN62      -0.1979
     42  CA        20.3050   14.1300   43.9680 C.3    62  GLN62       0.1601
     43  C         21.5030   13.9460   44.8970 C.2    62  GLN62       0.2287
     44  O         22.6540   14.1360   44.4970 O.2    62  GLN62      -0.2864
     45  CB        20.7530   14.0280   42.5120 C.3    62  GLN62       0.0394
     46  CG        19.5860   14.0540   41.5360 C.3    62  GLN62       0.0908
     47  CD        19.9530   13.5270   40.1640 C.2    62  GLN62       0.2608
     48  OE1       20.7550   12.6020   40.0380 O.2    62  GLN62      -0.2717
     49  NE2       19.3660   14.1170   39.1260 N.am   62  GLN62      -0.0878
     50  N         20.1410    9.7710   40.8160 N.3   103  GLY103     -0.1225
     51  CA        19.5860    8.9490   39.7520 C.3   103  GLY103      0.1811
     52  C         20.3520    7.6460   39.6060 C.2   103  GLY103      0.2280
     53  O         21.5780    7.6250   39.6890 O.2   103  GLY103     -0.2866
     54  N         23.1740    7.7100   36.8580 N.3   106  VAL106     -0.1245
     55  CA        24.3410    8.5770   36.9320 C.3   106  VAL106      0.1561
     56  C         25.6320    7.7510   36.9450 C.2   106  VAL106      0.2260
     57  O         25.6950    6.6890   37.5610 O.2   106  VAL106     -0.2867
     58  CB        24.2690    9.4780   38.1930 C.3   106  VAL106      0.0252
     59  CG1       25.6000   10.1880   38.4240 C.3   106  VAL106      0.0019
     60  CG2       23.1480   10.4960   38.0270 C.3   106  VAL106      0.0019
     61  N         11.2660    7.6620   42.1980 N.3   161  LEU161     -0.1231
     62  CA        10.7040    8.8700   41.6090 C.3   161  LEU161      0.1693
     63  C         11.6610    9.3440   40.5160 C.2   161  LEU161      0.2593
     64  O         12.7900    9.7200   40.8210 O.2   161  LEU161     -0.2718
     65  CB        10.5500    9.9570   42.6870 C.3   161  LEU161      0.0284
     66  CG        10.2880   11.3990   42.2240 C.3   161  LEU161      0.0019
     67  CD1        8.8530   11.5140   41.7160 C.3   161  LEU161      0.0001
     68  CD2       10.5280   12.3770   43.3730 C.3   161  LEU161      0.0001
     69  N         11.2220    9.3130   39.2580 N.am  162  THR162     -0.1939
     70  CA        12.0690    9.6670   38.1120 C.3   162  THR162      0.2028
     71  C         13.4590    9.0460   38.2260 C.2   162  THR162      0.2643
     72  O         14.4590    9.7230   38.0170 O.2   162  THR162     -0.2714
     73  CB        12.2510   11.2280   37.8620 C.3   162  THR162      0.1808
     74  OG1       12.3720   11.9320   39.1040 O.3   162  THR162     -0.2208
     75  CG2       11.1080   11.7830   37.0530 C.3   162  THR162      0.0379
     76  N         13.5160    7.7630   38.5730 N.am  163  GLY163     -0.1939
     77  CA        14.7960    7.0770   38.6570 C.3   163  GLY163      0.2014
     78  C         15.7000    7.3090   39.8560 C.2   163  GLY163      0.2638
     79  O         16.7740    6.7130   39.9350 O.2   163  GLY163     -0.2714
     80  N         15.2930    8.1710   40.7810 N.am  164  LEU164     -0.1977
     81  CA        16.0960    8.4370   41.9770 C.3   164  LEU164      0.1596
     82  C         16.1280    7.1970   42.8820 C.2   164  LEU164      0.2287
     83  O         15.0740    6.6980   43.2780 O.2   164  LEU164     -0.2864
     84  CB        15.4940    9.6190   42.7610 C.3   164  LEU164      0.0297
     85  CG        15.8320   11.1060   42.5290 C.3   164  LEU164      0.0022
     86  CD1       16.9260   11.2900   41.5090 C.3   164  LEU164      0.0001
     87  CD2       14.5700   11.8400   42.1290 C.3   164  LEU164      0.0001
     88  N          9.5170   24.7730   42.3180 N.3   299  ASP299     -0.1239
     89  CA         9.1440   23.8210   41.2790 C.3   299  ASP299      0.1674
     90  C          8.1590   24.4120   40.2720 C.2   299  ASP299      0.2266
     91  O          8.4650   24.4980   39.0780 O.2   299  ASP299     -0.2867
     92  CB         8.4760   22.5810   41.8810 C.3   299  ASP299      0.1410
     93  CG         9.4660   21.4910   42.2690 C.2   299  ASP299      0.3668
     94  OD1       10.6380   21.5200   41.8360 O.co2 299  ASP299     -0.2456
     95  OD2        9.0460   20.5890   43.0230 O.co2 299  ASP299     -0.2456
     96  N          7.6490   22.7780   37.0410 N.3   304  HIS304     -0.1241
     97  CA         8.1390   21.4690   37.4720 C.3   304  HIS304      0.1621
     98  C          7.2560   20.7930   38.5070 C.2   304  HIS304      0.2264
     99  O          7.4820   19.6310   38.8350 O.2   304  HIS304     -0.2867
    100  CB         9.5370   21.5840   38.0550 C.3   304  HIS304      0.0745
    101  CG        10.6110   21.2070   37.0960 C.ar  304  HIS304      0.0817
    102  ND1       11.3160   20.0300   37.1940 N.ar  304  HIS304     -0.2268
    103  CD2       11.1050   21.8540   36.0150 C.ar  304  HIS304      0.1154
    104  CE1       12.2010   19.9660   36.2150 C.ar  304  HIS304      0.1986
    105  NE2       12.0920   21.0610   35.4880 N.ar  304  HIS304     -0.2212
@<TRIPOS>BOND
     1    26    28   ar
     2    26    24   ar
     3    28    27   ar
     4   105   103   ar
     5   105   104   ar
     6    23    24   ar
     7    23    21   ar
     8    24    22   ar
     9   103   101   ar
    10   104   102   ar
    11    27    25   ar
    12    54    55    1
    13    55    56    1
    14    55    58    1
    15    56    57    2
    16    21    20   ar
    17    96    97    1
    18    75    73    1
    19   101   102   ar
    20   101   100    1
    21    22    25   ar
    22    22    20   ar
    23    97   100    1
    24    97    98    1
    25     9     7   ar
    26     9    10   ar
    27    73    70    1
    28    73    74    1
    29    20    19    1
    30     7     6   ar
    31    72    71    2
    32    60    58    1
    33    70    71    1
    34    70    69    1
    35    58    59    1
    36    71    76   am
    37    98    99    2
    38     1     2    1
    39    76    77    1
    40    77    78    1
    41    10    12   ar
    42    10     8   ar
    43    12    14   ar
    44    91    90    2
    45    49    47   am
    46    69    63   am
    47     6     8   ar
    48     6     5    1
    49    19    16    1
    50    52    53    2
    51    52    51    1
    52    51    50    1
    53    15    16    1
    54    15     3   am
    55     8    11   ar
    56    78    79    2
    57    78    80   am
    58     2     5    1
    59     2     3    1
    60    48    47    2
    61    47    46    1
    62    14    13   ar
    63    90    89    1
    64    16    17    1
    65    63    64    2
    66    63    62    1
    67     3     4    2
    68    17    18    2
    69    80    81    1
    70    11    13   ar
    71    89    92    1
    72    89    88    1
    73    86    85    1
    74    46    45    1
    75    62    61    1
    76    62    65    1
    77    67    66    1
    78    94    93   ar
    79    92    93    1
    80    81    84    1
    81    81    82    1
    82    87    85    1
    83    66    65    1
    84    66    68    1
    85    93    95   ar
    86    45    42    1
    87    85    84    1
    88    82    83    2
    89    42    41    1
    90    42    43    1
    91    33    30    1
    92    33    34    1
    93    29    30    1
    94    41    31   am
    95    31    32    2
    96    31    30    1
    97    44    43    2
    98    34    35   ar
    99    34    36   ar
   100    35    37   ar
   101    36    38   ar
   102    37    39   ar
   103    38    39   ar
   104    39    40    1
