@<TRIPOS>MOLECULE
tmp/1cq8A00.pdb
 181 172 0 0 0
SMALL
GASTEIGER

@<TRIPOS>ATOM
      1  N         28.3510   16.1620  -11.7660 N.3    13  ILE13      -0.1231
      2  CA        26.9680   15.7570  -11.9800 C.3    13  ILE13       0.1692
      3  C         26.0790   16.0250  -10.7680 C.2    13  ILE13       0.2591
      4  O         25.1200   16.7910  -10.8460 O.2    13  ILE13      -0.2718
      5  CB        26.9080   14.2540  -12.3470 C.3    13  ILE13       0.0266
      6  CG1       27.5660   14.0300  -13.7110 C.3    13  ILE13       0.0019
      7  CG2       25.4830   13.7540  -12.3450 C.3    13  ILE13       0.0020
      8  CD1       27.6000   12.5890  -14.1600 C.3    13  ILE13       0.0001
      9  N         26.4240   15.4290   -9.6350 N.am   14  LEU14      -0.1980
     10  CA        25.6240   15.5950   -8.4270 C.3    14  LEU14       0.1596
     11  C         25.6860   16.9770   -7.8010 C.2    14  LEU14       0.2287
     12  O         24.6810   17.4650   -7.2980 O.2    14  LEU14      -0.2864
     13  CB        25.9520   14.5090   -7.3980 C.3    14  LEU14       0.0297
     14  CG        25.5500   13.0800   -7.7930 C.3    14  LEU14       0.0022
     15  CD1       26.0850   12.1170   -6.7770 C.3    14  LEU14       0.0001
     16  CD2       24.0340   12.9370   -7.9170 C.3    14  LEU14       0.0001
     17  N         21.4320   15.7040  -14.2650 N.3    33  ILE33      -0.1231
     18  CA        21.3580   14.2580  -14.0040 C.3    33  ILE33       0.1692
     19  C         20.5050   13.4880  -15.0100 C.2    33  ILE33       0.2593
     20  O         19.5540   14.0190  -15.5810 O.2    33  ILE33      -0.2718
     21  CB        20.8250   13.9380  -12.5650 C.3    33  ILE33       0.0266
     22  CG1       21.2720   15.0010  -11.5690 C.3    33  ILE33       0.0019
     23  CG2       21.4040   12.6090  -12.0590 C.3    33  ILE33       0.0020
     24  CD1       21.0630   14.5980  -10.1230 C.3    33  ILE33       0.0001
     25  N         20.8660   12.2290  -15.2200 N.am   34  GLY34      -0.1942
     26  CA        20.1400   11.3790  -16.1410 C.3    34  GLY34       0.2014
     27  C         18.9530   10.7630  -15.4390 C.2    34  GLY34       0.2638
     28  O         19.0040    9.6310  -14.9560 O.2    34  GLY34      -0.2714
     29  N         17.9160   11.5720  -15.2940 N.am   35  VAL35      -0.1977
     30  CA        16.6770   11.1710  -14.6620 C.3    35  VAL35       0.1596
     31  C         15.6100   11.4830  -15.6930 C.2    35  VAL35       0.2287
     32  O         15.6210   12.5550  -16.2950 O.2    35  VAL35      -0.2864
     33  CB        16.4400   11.9710  -13.3680 C.3    35  VAL35       0.0276
     34  CG1       14.9790   11.9750  -13.0020 C.3    35  VAL35       0.0022
     35  CG2       17.2420   11.3580  -12.2270 C.3    35  VAL35       0.0022
     36  N         22.2840   -0.3470   -6.3290 N.3   102  GLY102     -0.1210
     37  CA        22.4760    0.4030   -7.5550 C.3   102  GLY102      0.1956
     38  C         23.5760   -0.1490   -8.4310 C.2   102  GLY102      0.2612
     39  O         24.1970   -1.1640   -8.1030 O.2   102  GLY102     -0.2717
     40  N         23.7670    0.4910   -9.5800 N.am  103  GLY103     -0.1942
     41  CA        24.8100    0.0980  -10.5000 C.3   103  GLY103      0.2014
     42  C         26.1310    0.6040   -9.9480 C.2   103  GLY103      0.2639
     43  O         27.1780    0.0230  -10.2160 O.2   103  GLY103     -0.2714
     44  N         26.0900    1.6890   -9.1780 N.am  104  THR104     -0.1950
     45  CA        27.2880    2.2400   -8.5690 C.3   104  THR104      0.1897
     46  C         27.8260    1.2250   -7.5750 C.2   104  THR104      0.2313
     47  O         29.0160    0.9410   -7.5580 O.2   104  THR104     -0.2863
     48  CB        26.9940    3.5510   -7.8310 C.3   104  THR104      0.1794
     49  OG1       26.4120    4.4910   -8.7460 O.3   104  THR104     -0.2208
     50  CG2       28.2750    4.1540   -7.2650 C.3   104  THR104      0.0378
     51  N         29.4400   -1.7470   -9.2760 N.3   107  LEU107     -0.1245
     52  CA        30.7850   -1.4270   -9.7430 C.3   107  LEU107      0.1561
     53  C         31.7670   -1.5060   -8.5580 C.2   107  LEU107      0.2260
     54  O         32.8180   -2.1320   -8.6620 O.2   107  LEU107     -0.2867
     55  CB        30.8140   -0.0350  -10.3850 C.3   107  LEU107      0.0270
     56  CG        30.1460    0.0980  -11.7610 C.3   107  LEU107      0.0019
     57  CD1       30.0200    1.5710  -12.1650 C.3   107  LEU107      0.0001
     58  CD2       30.9420   -0.6870  -12.7970 C.3   107  LEU107      0.0001
     59  N         31.4670    8.1230  -17.6840 N.3   130  TRP130     -0.1241
     60  CA        30.7800    8.5900  -16.4930 C.3   130  TRP130      0.1605
     61  C         31.9080    8.8910  -15.5020 C.2   130  TRP130      0.2264
     62  O         32.6510    7.9830  -15.1000 O.2   130  TRP130     -0.2867
     63  CB        29.8540    7.4890  -15.9440 C.3   130  TRP130      0.0550
     64  CG        29.1070    7.8890  -14.6900 C.ar  130  TRP130      0.0003
     65  CD1       28.5620    9.1110  -14.4190 C.ar  130  TRP130      0.0946
     66  CD2       28.8450    7.0710  -13.5380 C.ar  130  TRP130      0.0152
     67  NE1       27.9880    9.1090  -13.1690 N.ar  130  TRP130     -0.2442
     68  CE2       28.1450    7.8710  -12.6070 C.ar  130  TRP130      0.0810
     69  CE3       29.1350    5.7430  -13.2030 C.ar  130  TRP130      0.0012
     70  CZ2       27.7240    7.3840  -11.3630 C.ar  130  TRP130      0.0191
     71  CZ3       28.7150    5.2580  -11.9630 C.ar  130  TRP130      0.0001
     72  CH2       28.0190    6.0810  -11.0590 C.ar  130  TRP130      0.0015
     73  N         30.5030    0.1820  -21.9940 N.3   178  HIS178     -0.1241
     74  CA        29.1320    0.5890  -21.6730 C.3   178  HIS178      0.1621
     75  C         28.2790   -0.2680  -22.6150 C.2   178  HIS178      0.2264
     76  O         28.4540   -0.1920  -23.8310 O.2   178  HIS178     -0.2867
     77  CB        28.8830    2.0610  -21.9990 C.3   178  HIS178      0.0745
     78  CG        29.7000    3.0200  -21.1880 C.ar  178  HIS178      0.0817
     79  ND1       29.2600    4.2890  -20.8870 N.ar  178  HIS178     -0.2268
     80  CD2       30.9420    2.9200  -20.6650 C.ar  178  HIS178      0.1154
     81  CE1       30.1980    4.9350  -20.2170 C.ar  178  HIS178      0.1986
     82  NE2       31.2310    4.1230  -20.0710 N.ar  178  HIS178     -0.2212
     83  N         27.5410    6.8320  -22.1040 N.3   183  ASN183     -0.1240
     84  CA        27.4860    8.0400  -21.3000 C.3   183  ASN183      0.1653
     85  C         28.9130    8.6310  -21.3440 C.2   183  ASN183      0.2266
     86  O         29.8670    7.9610  -20.9650 O.2   183  ASN183     -0.2867
     87  CB        27.0850    7.6530  -19.8740 C.3   183  ASN183      0.1155
     88  CG        27.0180    8.8280  -18.9470 C.2   183  ASN183      0.2627
     89  OD1       27.1700    9.9810  -19.3600 O.2   183  ASN183     -0.2716
     90  ND2       26.7980    8.5490  -17.6720 N.am  183  ASN183     -0.0877
     91  N         29.1540   -2.2060  -18.1230 N.3   211  ASP211     -0.1239
     92  CA        28.3470   -1.3470  -17.2640 C.3   211  ASP211      0.1674
     93  C         27.0480   -1.1590  -18.0400 C.2   211  ASP211      0.2266
     94  O         27.0380   -0.5350  -19.1110 O.2   211  ASP211     -0.2867
     95  CB        29.0080    0.0150  -17.0400 C.3   211  ASP211      0.1410
     96  CG        28.2760    0.8670  -15.9980 C.2   211  ASP211      0.3668
     97  OD1       27.2910    0.3970  -15.3990 O.co2 211  ASP211     -0.2456
     98  OD2       28.7020    2.0100  -15.7490 O.co2 211  ASP211     -0.2456
     99  N         23.4810    0.3800  -17.5620 N.3   213  ALA213     -0.1231
    100  CA        22.6010    1.1950  -16.7350 C.3   213  ALA213      0.1694
    101  C         21.3840    1.6890  -17.4940 C.2   213  ALA213      0.2592
    102  O         20.4880    2.2890  -16.9030 O.2   213  ALA213     -0.2718
    103  CB        23.3630    2.3740  -16.1730 C.3   213  ALA213      0.0304
    104  N         21.3630    1.4450  -18.8010 N.am  214  TYR214     -0.1976
    105  CA        20.2770    1.8890  -19.6530 C.3   214  TYR214      0.1639
    106  C         19.7380    0.8060  -20.5850 C.2   214  TYR214      0.2290
    107  O         19.4460    1.0960  -21.7490 O.2   214  TYR214     -0.2864
    108  CB        20.7630    3.0600  -20.5110 C.3   214  TYR214      0.0560
    109  CG        21.3940    4.1800  -19.7190 C.ar  214  TYR214     -0.0198
    110  CD1       20.6130    5.2050  -19.1940 C.ar  214  TYR214     -0.0009
    111  CD2       22.7720    4.2000  -19.4700 C.ar  214  TYR214     -0.0009
    112  CE1       21.1790    6.2250  -18.4360 C.ar  214  TYR214      0.0417
    113  CE2       23.3510    5.2130  -18.7120 C.ar  214  TYR214      0.0417
    114  CZ        22.5470    6.2270  -18.1980 C.ar  214  TYR214      0.1957
    115  OH        23.1010    7.2500  -17.4580 O.3   214  TYR214     -0.2866
    116  N         21.9440   -1.9200  -13.8470 N.3   243  SER243     -0.1217
    117  CA        21.0940   -1.0910  -13.0070 C.3   243  SER243      0.1889
    118  C         19.6410   -1.0840  -13.4590 C.2   243  SER243      0.2288
    119  O         19.3480   -1.2460  -14.6480 O.2   243  SER243     -0.2866
    120  CB        21.6180    0.3480  -13.0080 C.3   243  SER243      0.2089
    121  OG        20.9300    1.1360  -12.0600 O.3   243  SER243     -0.2183
    122  N         17.6740    1.5330  -12.2430 N.3   245  SER245     -0.1202
    123  CA        17.3260    2.8810  -11.8360 C.3   245  SER245      0.2020
    124  C         16.5890    3.6710  -12.9000 C.2   245  SER245      0.2618
    125  O         15.6670    4.4120  -12.5920 O.2   245  SER245     -0.2717
    126  CB        18.5770    3.6380  -11.3910 C.3   245  SER245      0.2103
    127  OG        19.1600    3.0040  -10.2670 O.3   245  SER245     -0.2182
    128  N         16.9720    3.5040  -14.1540 N.am  246  LYS246     -0.1979
    129  CA        16.3290    4.2490  -15.2190 C.3   246  LYS246      0.1596
    130  C         15.1820    3.5060  -15.8920 C.2   246  LYS246      0.2287
    131  O         14.0700    4.0330  -15.9820 O.2   246  LYS246     -0.2864
    132  CB        17.3670    4.7210  -16.2500 C.3   246  LYS246      0.0298
    133  CG        18.4060    5.6950  -15.6600 C.3   246  LYS246      0.0038
    134  CD        19.7600    5.0250  -15.4500 C.3   246  LYS246      0.0206
    135  CE        20.5500    5.6440  -14.3170 C.3   246  LYS246      0.1093
    136  NZ        20.6290    7.1300  -14.3840 N.3   246  LYS246     -0.1314
    137  N         15.1850    4.9850   -9.1890 N.3   251  TYR251     -0.1241
    138  CA        16.3710    5.7420   -8.8010 C.3   251  TYR251      0.1605
    139  C         16.7640    5.6550   -7.3320 C.2   251  TYR251      0.2264
    140  O         17.8150    5.1280   -7.0080 O.2   251  TYR251     -0.2867
    141  CB        16.2130    7.2230   -9.1980 C.3   251  TYR251      0.0534
    142  CG        15.7720    7.4610  -10.6330 C.ar  251  TYR251     -0.0201
    143  CD1       16.6530    7.2640  -11.6950 C.ar  251  TYR251     -0.0009
    144  CD2       14.4600    7.8480  -10.9310 C.ar  251  TYR251     -0.0009
    145  CE1       16.2440    7.4360  -13.0200 C.ar  251  TYR251      0.0417
    146  CE2       14.0390    8.0300  -12.2600 C.ar  251  TYR251      0.0417
    147  CZ        14.9380    7.8180  -13.2980 C.ar  251  TYR251      0.1957
    148  OH        14.5560    7.9800  -14.6130 O.3   251  TYR251     -0.2866
    149  N         17.8290    2.1110   -5.0230 N.3   254  ARG254     -0.1245
    150  CA        19.1220    1.4560   -5.2460 C.3   254  ARG254      0.1563
    151  C         18.9980   -0.0030   -5.6090 C.2   254  ARG254      0.2260
    152  O         19.3080   -0.9000   -4.8180 O.2   254  ARG254     -0.2867
    153  CB        20.0400    1.6330   -4.0290 C.3   254  ARG254      0.0307
    154  CG        20.0390    3.0370   -3.4470 C.3   254  ARG254      0.0489
    155  CD        20.1440    4.1280   -4.5000 C.3   254  ARG254      0.2205
    156  NE        21.4820    4.2560   -5.0570 N.pl3 254  ARG254     -0.0865
    157  CZ        21.7610    4.2080   -6.3530 C.cat 254  ARG254      0.5346
    158  NH1       20.7920    4.0350   -7.2410 N.pl3 254  ARG254      0.1354
    159  NH2       23.0170    4.3190   -6.7610 N.pl3 254  ARG254      0.1354
    160  N         20.8740   11.2160  -22.9680 N.3   348  PHE348     -0.1241
    161  CA        21.6930   12.4030  -23.2240 C.3   348  PHE348      0.1605
    162  C         22.0340   12.7480  -24.6520 C.2   348  PHE348      0.2264
    163  O         21.5960   12.1090  -25.6070 O.2   348  PHE348     -0.2867
    164  CB        23.0230   12.3100  -22.4620 C.3   348  PHE348      0.0534
    165  CG        22.8910   11.7760  -21.0800 C.ar  348  PHE348     -0.0203
    166  CD1       22.2460   12.5140  -20.1010 C.ar  348  PHE348     -0.0042
    167  CD2       23.4270   10.5420  -20.7520 C.ar  348  PHE348     -0.0042
    168  CE1       22.1370   12.0330  -18.8180 C.ar  348  PHE348     -0.0003
    169  CE2       23.3230   10.0510  -19.4680 C.ar  348  PHE348     -0.0003
    170  CZ        22.6790   10.7970  -18.4960 C.ar  348  PHE348     -0.0000
    171  N         27.2250   17.8230  -21.7330 N.3   374  ARG374     -0.1245
    172  CA        26.2140   16.7670  -21.7620 C.3   374  ARG374      0.1563
    173  C         24.8950   17.3320  -21.2580 C.2   374  ARG374      0.2260
    174  O         24.8450   17.9720  -20.2000 O.2   374  ARG374     -0.2867
    175  CB        26.6140   15.5870  -20.8700 C.3   374  ARG374      0.0307
    176  CG        25.6630   14.3950  -20.9770 C.3   374  ARG374      0.0489
    177  CD        25.8690   13.3800  -19.8770 C.3   374  ARG374      0.2205
    178  NE        25.2920   13.8230  -18.6140 N.pl3 374  ARG374     -0.0865
    179  CZ        25.2680   13.0960  -17.5020 C.cat 374  ARG374      0.5346
    180  NH1       25.8100   11.8870  -17.4810 N.pl3 374  ARG374      0.1354
    181  NH2       24.6250   13.5450  -16.4340 N.pl3 374  ARG374      0.1354
@<TRIPOS>BOND
     1   163   162    2
     2   162   161    1
     3    76    75    2
     4   161   160    1
     5   161   164    1
     6    75    74    1
     7   164   165    1
     8    83    84    1
     9    77    74    1
    10    77    78    1
    11    73    74    1
    12   172   171    1
    13   172   173    1
    14   172   175    1
    15   107   106    2
    16    85    84    1
    17    85    86    2
    18    84    87    1
    19   173   174    2
    20    78    79   ar
    21    78    80   ar
    22   165   167   ar
    23   165   166   ar
    24   176   175    1
    25   176   177    1
    26    79    81   ar
    27   167   169   ar
    28    80    82   ar
    29   106   105    1
    30   108   109    1
    31   108   105    1
    32    81    82   ar
    33   166   168   ar
    34   177   178    1
    35    87    88    1
    36   109   111   ar
    37   109   110   ar
    38   105   104    1
    39   111   113   ar
    40   169   170   ar
    41    89    88    2
    42   110   112   ar
    43    94    93    2
    44    88    90   am
    45   168   170   ar
    46   104   101   am
    47   113   114   ar
    48   178   179    2
    49   112   114   ar
    50   114   115    1
    51    91    92    1
    52    93    92    1
    53    59    60    1
    54    99   100    1
    55   179   180    1
    56   179   181    1
    57   101   102    2
    58   101   100    1
    59    92    95    1
    60    95    96    1
    61   100   103    1
    62    60    63    1
    63    60    61    1
    64    32    31    2
    65   132   133    1
    66   132   129    1
    67    26    27    1
    68    26    25    1
    69    96    98   ar
    70    96    97   ar
    71   131   130    2
    72    63    64    1
    73   130   129    1
    74    31    30    1
    75   133   134    1
    76    20    19    2
    77    61    62    2
    78   134   135    1
    79    27    29   am
    80    27    28    2
    81    29    30    1
    82    25    19   am
    83   129   128    1
    84    19    18    1
    85    64    65   ar
    86    64    66   ar
    87    30    33    1
    88   119   118    2
    89   148   147    1
    90    65    67   ar
    91   136   135    1
    92    17    18    1
    93     8     6    1
    94   128   124   am
    95    18    21    1
    96   116   117    1
    97     6     5    1
    98    66    69   ar
    99    66    68   ar
   100   118   117    1
   101    33    34    1
   102    33    35    1
   103   147   145   ar
   104   147   146   ar
   105    69    71   ar
   106    67    68   ar
   107   145   143   ar
   108   120   117    1
   109   120   121    1
   110   124   125    2
   111   124   123    1
   112    58    56    1
   113    68    70   ar
   114    21    23    1
   115    21    22    1
   116     5     7    1
   117     5     2    1
   118   146   144   ar
   119   122   123    1
   120    57    56    1
   121     2     1    1
   122     2     3    1
   123    71    72   ar
   124   123   126    1
   125    56    55    1
   126   143   142   ar
   127    22    24    1
   128   126   127    1
   129    70    72   ar
   130   144   142   ar
   131     4     3    2
   132     3     9   am
   133   142   141    1
   134    41    42    1
   135    41    40    1
   136    55    52    1
   137    43    42    2
   138    42    44   am
   139    52    51    1
   140    52    53    1
   141     9    10    1
   142    40    38   am
   143   141   138    1
   144   137   138    1
   145    44    45    1
   146   138   139    1
   147    49    48    1
   148    54    53    2
   149    45    48    1
   150    45    46    1
   151    38    39    2
   152    38    37    1
   153    10    11    1
   154    10    13    1
   155    16    14    1
   156    48    50    1
   157    11    12    2
   158    14    13    1
   159    14    15    1
   160    46    47    2
   161    37    36    1
   162   139   140    2
   163   158   157    1
   164   159   157    1
   165   157   156    2
   166   151   150    1
   167   151   152    2
   168   150   149    1
   169   150   153    1
   170   156   155    1
   171   155   154    1
   172   153   154    1
