@<TRIPOS>MOLECULE
tmp/1cqeB03.pdb
 126 119 0 0 0
SMALL
GASTEIGER

@<TRIPOS>ATOM
      1  N         71.2790   22.5970  217.0070 N.3    53  ARG53      -0.1245
      2  CA        71.2720   22.4350  215.5700 C.3    53  ARG53       0.1563
      3  C         72.6580   22.2920  214.9920 C.2    53  ARG53       0.2260
      4  O         73.4470   23.2340  215.0330 O.2    53  ARG53      -0.2867
      5  CB        70.5590   23.6110  214.9260 C.3    53  ARG53       0.0307
      6  CG        70.5300   23.5380  213.4190 C.3    53  ARG53       0.0489
      7  CD        69.7390   24.7000  212.8400 C.3    53  ARG53       0.2205
      8  NE        70.2710   25.9940  213.2650 N.pl3  53  ARG53      -0.0865
      9  CZ        70.5290   27.0040  212.4350 C.cat  53  ARG53       0.5346
     10  NH1       70.3550   26.8720  211.1110 N.pl3  53  ARG53       0.1354
     11  NH2       71.0050   28.1450  212.9270 N.pl3  53  ARG53       0.1354
     12  N         75.3760   23.3700  208.9340 N.3    56  PRO56      -0.2116
     13  CA        75.0260   23.1230  207.5380 C.3    56  PRO56       0.1372
     14  C         76.0420   22.1840  206.9300 C.2    56  PRO56       0.2244
     15  O         75.7270   21.3050  206.1220 O.2    56  PRO56      -0.2868
     16  CB        75.1700   24.5070  206.9220 C.3    56  PRO56       0.0268
     17  CG        74.6690   25.3690  207.9810 C.3    56  PRO56       0.0207
     18  CD        75.3120   24.8120  209.2160 C.3    56  PRO56       0.0892
     19  N         75.6520   18.6100  208.3720 N.3    59  ILE59      -0.1245
     20  CA        74.5390   17.9750  207.7250 C.3    59  ILE59       0.1561
     21  C         74.9500   17.5550  206.3280 C.2    59  ILE59       0.2260
     22  O         74.8110   16.4020  205.9620 O.2    59  ILE59      -0.2867
     23  CB        73.3500   18.9210  207.6340 C.3    59  ILE59       0.0252
     24  CG1       73.0410   19.5060  209.0060 C.3    59  ILE59       0.0019
     25  CG2       72.1430   18.1610  207.1510 C.3    59  ILE59       0.0019
     26  CD1       72.6980   18.4620  209.9870 C.3    59  ILE59       0.0001
     27  N         76.9370   14.2130  206.2550 N.3    62  LEU62      -0.1231
     28  CA        76.1310   13.0360  206.4620 C.3    62  LEU62       0.1693
     29  C         75.3110   12.7000  205.2210 C.2    62  LEU62       0.2591
     30  O         75.1290   11.5440  204.8880 O.2    62  LEU62      -0.2718
     31  CB        75.1700   13.2790  207.6220 C.3    62  LEU62       0.0284
     32  CG        75.6820   13.9470  208.8920 C.3    62  LEU62       0.0019
     33  CD1       74.5350   14.1400  209.8580 C.3    62  LEU62       0.0001
     34  CD2       76.7760   13.1090  209.4940 C.3    62  LEU62       0.0001
     35  N         74.7960   13.7160  204.5440 N.am   63  LEU63      -0.1980
     36  CA        73.9640   13.5030  203.3650 C.3    63  LEU63       0.1596
     37  C         74.6940   13.0100  202.1470 C.2    63  LEU63       0.2287
     38  O         74.0780   12.4670  201.2470 O.2    63  LEU63      -0.2864
     39  CB        73.1960   14.7720  203.0220 C.3    63  LEU63       0.0297
     40  CG        72.0200   15.0080  203.9490 C.3    63  LEU63       0.0022
     41  CD1       71.5270   16.4070  203.7740 C.3    63  LEU63       0.0001
     42  CD2       70.9400   14.0060  203.6380 C.3    63  LEU63       0.0001
     43  N         72.6560    4.9850  203.3510 N.3    70  TRP70      -0.1241
     44  CA        71.5810    5.6840  202.6530 C.3    70  TRP70       0.1605
     45  C         70.7280    4.7520  201.8500 C.2    70  TRP70       0.2264
     46  O         69.5390    4.9910  201.7020 O.2    70  TRP70      -0.2867
     47  CB        72.0970    6.8180  201.7820 C.3    70  TRP70       0.0550
     48  CG        72.4120    8.0070  202.6130 C.ar   70  TRP70       0.0003
     49  CD1       73.6480    8.5280  202.8600 C.ar   70  TRP70       0.0946
     50  CD2       71.4840    8.7740  203.3990 C.ar   70  TRP70       0.0152
     51  NE1       73.5550    9.5640  203.7580 N.ar   70  TRP70      -0.2442
     52  CE2       72.2400    9.7410  204.1080 C.ar   70  TRP70       0.0810
     53  CE3       70.0970    8.7260  203.5870 C.ar   70  TRP70       0.0012
     54  CZ2       71.6530   10.6600  204.9950 C.ar   70  TRP70       0.0191
     55  CZ3       69.5080    9.6390  204.4780 C.ar   70  TRP70       0.0001
     56  CH2       70.2920   10.5920  205.1680 C.ar   70  TRP70       0.0015
     57  N         62.0830   12.0890  206.2600 N.3    82  LEU82      -0.1245
     58  CA        63.1050   13.0900  206.0380 C.3    82  LEU82       0.1561
     59  C         62.7000   14.0270  204.9150 C.2    82  LEU82       0.2260
     60  O         62.9070   15.2290  205.0170 O.2    82  LEU82      -0.2867
     61  CB        64.4390   12.4430  205.6840 C.3    82  LEU82       0.0270
     62  CG        65.1100   11.6120  206.7710 C.3    82  LEU82       0.0019
     63  CD1       66.2890   10.8640  206.1800 C.3    82  LEU82       0.0001
     64  CD2       65.5490   12.5020  207.8930 C.3    82  LEU82       0.0001
     65  N         60.5310   16.5200  206.2370 N.3    85  LEU85      -0.1231
     66  CA        61.2830   17.4250  207.0870 C.3    85  LEU85       0.1693
     67  C         62.0030   18.4970  206.2490 C.2    85  LEU85       0.2591
     68  O         61.9050   19.6830  206.5300 O.2    85  LEU85      -0.2718
     69  CB        62.2700   16.6120  207.9000 C.3    85  LEU85       0.0284
     70  CG        63.1370   17.4610  208.7900 C.3    85  LEU85       0.0019
     71  CD1       62.2700   17.9510  209.9010 C.3    85  LEU85       0.0001
     72  CD2       64.2920   16.6470  209.3160 C.3    85  LEU85       0.0001
     73  N         62.7050   18.0620  205.2090 N.am   86  VAL86      -0.1980
     74  CA        63.4190   18.9490  204.2910 C.3    86  VAL86       0.1595
     75  C         62.4470   19.9870  203.7060 C.2    86  VAL86       0.2287
     76  O         62.7320   21.1860  203.6510 O.2    86  VAL86      -0.2864
     77  CB        64.0410   18.1180  203.1170 C.3    86  VAL86       0.0276
     78  CG1       64.4250   19.0120  201.9500 C.3    86  VAL86       0.0022
     79  CG2       65.2660   17.3430  203.6080 C.3    86  VAL86       0.0022
     80  N         60.8490   22.3420  206.8000 N.3    89  VAL89      -0.1231
     81  CA        61.9170   23.1100  207.3990 C.3    89  VAL89       0.1692
     82  C         62.4700   24.1660  206.4540 C.2    89  VAL89       0.2591
     83  O         62.6440   25.3280  206.8330 O.2    89  VAL89      -0.2718
     84  CB        63.0200   22.1660  207.8350 C.3    89  VAL89       0.0266
     85  CG1       64.3570   22.8790  207.8960 C.3    89  VAL89       0.0020
     86  CG2       62.6660   21.5740  209.1760 C.3    89  VAL89       0.0020
     87  N         62.7490   23.7420  205.2260 N.am   90  ARG90      -0.1980
     88  CA        63.2890   24.6120  204.2030 C.3    90  ARG90       0.1597
     89  C         62.3400   25.7470  203.8750 C.2    90  ARG90       0.2287
     90  O         62.7300   26.8970  203.8730 O.2    90  ARG90      -0.2864
     91  CB        63.5560   23.7990  202.9540 C.3    90  ARG90       0.0334
     92  CG        64.9420   23.9180  202.4170 C.3    90  ARG90       0.0492
     93  CD        65.9030   23.1390  203.2550 C.3    90  ARG90       0.2205
     94  NE        67.1010   23.9210  203.5610 N.pl3  90  ARG90      -0.0865
     95  CZ        68.3630   23.5250  203.3490 C.cat  90  ARG90       0.5346
     96  NH1       68.6390   22.3390  202.8110 N.pl3  90  ARG90       0.1354
     97  NH2       69.3720   24.3040  203.7270 N.pl3  90  ARG90       0.1354
     98  N         73.1380   14.4980  197.0570 N.3   325  TYR325     -0.1241
     99  CA        72.7900   13.7570  198.2680 C.3   325  TYR325      0.1605
    100  C         72.6450   12.2810  197.9880 C.2   325  TYR325      0.2264
    101  O         72.4550   11.8720  196.8410 O.2   325  TYR325     -0.2867
    102  CB        71.4580   14.2390  198.8480 C.3   325  TYR325      0.0534
    103  CG        71.4630   15.6280  199.4160 C.ar  325  TYR325     -0.0201
    104  CD1       72.6150   16.3900  199.4140 C.ar  325  TYR325     -0.0009
    105  CD2       70.3030   16.1900  199.9380 C.ar  325  TYR325     -0.0009
    106  CE1       72.6230   17.6740  199.9270 C.ar  325  TYR325      0.0417
    107  CE2       70.2990   17.4690  200.4550 C.ar  325  TYR325      0.0417
    108  CZ        71.4650   18.2120  200.4420 C.ar  325  TYR325      0.1957
    109  OH        71.5080   19.4900  200.9590 O.3   325  TYR325     -0.2866
    110  N         70.5010   10.6520  200.0310 N.3   327  LEU327     -0.1245
    111  CA        69.1030   10.5220  200.3660 C.3   327  LEU327      0.1561
    112  C         68.3880   10.6710  199.0320 C.2   327  LEU327      0.2260
    113  O         68.6580   11.6090  198.2840 O.2   327  LEU327     -0.2867
    114  CB        68.6720   11.6670  201.2700 C.3   327  LEU327      0.0270
    115  CG        67.1630   11.8770  201.2970 C.3   327  LEU327      0.0019
    116  CD1       66.5030   10.8150  202.1770 C.3   327  LEU327      0.0001
    117  CD2       66.8620   13.2720  201.7950 C.3   327  LEU327      0.0001
    118  N         71.8590   26.6830  201.3820 N.3   494  GLU494     -0.1245
    119  CA        71.0440   27.2170  202.4600 C.3   494  GLU494      0.1567
    120  C         70.1120   28.3680  202.0790 C.2   494  GLU494      0.2260
    121  O         69.0730   28.5420  202.7140 O.2   494  GLU494     -0.2867
    122  CB        71.9210   27.6430  203.6240 C.3   494  GLU494      0.0388
    123  CG        72.7810   26.5320  204.1590 C.3   494  GLU494      0.1160
    124  CD        71.9980   25.3880  204.7430 C.2   494  GLU494      0.3649
    125  OE1       71.1630   25.6380  205.6460 O.co2 494  GLU494     -0.2457
    126  OE2       72.2610   24.2330  204.3280 O.co2 494  GLU494     -0.2457
@<TRIPOS>BOND
     1   101   100    2
     2    98    99    1
     3   100    99    1
     4    99   102    1
     5   113   112    2
     6   102   103    1
     7   112   111    1
     8   104   103   ar
     9   104   106   ar
    10   103   105   ar
    11   106   108   ar
    12   105   107   ar
    13   110   111    1
    14   111   114    1
    15   108   107   ar
    16   108   109    1
    17    38    37    2
    18   114   115    1
    19   115   117    1
    20   115   116    1
    21   118   119    1
    22    46    45    2
    23    47    48    1
    24    47    44    1
    25    45    44    1
    26    78    77    1
    27   120   119    1
    28   120   121    2
    29    37    36    1
    30    92    91    1
    31    92    93    1
    32   119   122    1
    33    48    49   ar
    34    48    50   ar
    35    44    43    1
    36    96    95    1
    37    49    51   ar
    38    91    88    1
    39    39    36    1
    40    39    40    1
    41    77    79    1
    42    77    74    1
    43    93    94    1
    44    95    94    2
    45    95    97    1
    46    36    35    1
    47    50    53   ar
    48    50    52   ar
    49    53    55   ar
    50   122   123    1
    51    42    40    1
    52    76    75    2
    53    75    74    1
    54    51    52   ar
    55    41    40    1
    56    90    89    2
    57    89    88    1
    58    52    54   ar
    59   123   124    1
    60    88    87    1
    61    74    73    1
    62   126   124   ar
    63    55    56   ar
    64    35    29   am
    65   124   125   ar
    66    30    29    2
    67    59    60    2
    68    59    58    1
    69    54    56   ar
    70    73    67   am
    71    29    28    1
    72    87    82   am
    73    61    58    1
    74    61    62    1
    75    22    21    2
    76    58    57    1
    77    15    14    2
    78    63    62    1
    79    65    66    1
    80    67    68    2
    81    67    66    1
    82    27    28    1
    83    21    20    1
    84    82    83    2
    85    82    81    1
    86    28    31    1
    87    62    64    1
    88    80    81    1
    89    16    13    1
    90    16    17    1
    91    14    13    1
    92    66    69    1
    93    25    23    1
    94    81    84    1
    95    13    12    1
    96    31    32    1
    97    23    20    1
    98    23    24    1
    99    20    19    1
   100    84    85    1
   101    84    86    1
   102    69    70    1
   103    17    18    1
   104    70    72    1
   105    70    71    1
   106    32    34    1
   107    32    33    1
   108    12    18    1
   109    24    26    1
   110    10     9    1
   111     9    11    1
   112     9     8    2
   113     7     8    1
   114     7     6    1
   115     6     5    1
   116     5     2    1
   117     3     4    2
   118     3     2    1
   119     2     1    1
