@<TRIPOS>MOLECULE
tmp/1cqgA00.pdb
 117 114 0 0 0
SMALL
GASTEIGER

@<TRIPOS>ATOM
      1  N         11.0510    7.4690    5.5500 N.3    31  TRP31      -0.1227
      2  CA        12.1440    8.4830    5.6390 C.3    31  TRP31       0.1737
      3  C         11.8920    9.6320    4.6680 C.2    31  TRP31       0.2595
      4  O         12.3790   10.7290    4.8570 O.2    31  TRP31      -0.2718
      5  CB        13.4790    7.8320    5.2980 C.3    31  TRP31       0.0564
      6  CG        13.4670    7.3550    3.8800 C.ar   31  TRP31       0.0003
      7  CD1       13.2480    6.0800    3.5100 C.ar   31  TRP31       0.0946
      8  CD2       13.6540    8.1120    2.6460 C.ar   31  TRP31       0.0152
      9  NE1       13.3460    5.9850    2.1350 N.ar   31  TRP31      -0.2442
     10  CE2       13.5790    7.2140    1.5560 C.ar   31  TRP31       0.0810
     11  CE3       13.8920    9.4710    2.3670 C.ar   31  TRP31       0.0012
     12  CZ2       13.7340    7.6450    0.2400 C.ar   31  TRP31       0.0191
     13  CZ3       14.0430    9.9080    1.0400 C.ar   31  TRP31       0.0001
     14  CH2       13.9640    8.9960   -0.0190 C.ar   31  TRP31       0.0015
     15  N         11.1450    9.4000    3.6220 N.am   32  CYS32      -0.1970
     16  CA        10.8800   10.5000    2.6510 C.3    32  CYS32       0.1712
     17  C          9.6870   11.3100    3.1640 C.2    32  CYS32       0.2296
     18  O          8.6020   10.7940    3.3540 O.2    32  CYS32      -0.2864
     19  CB        10.5890    9.9050    1.2580 C.3    32  CYS32       0.0983
     20  SG        10.8010   11.1890   -0.0150 S.3    32  CYS32      -0.0798
     21  N          7.8540   13.8410    1.7490 N.3    34  PRO34      -0.2102
     22  CA         6.7410   13.9110    0.7630 C.3    34  PRO34       0.1504
     23  C          5.9230   12.6180    0.7160 C.2    34  PRO34       0.2575
     24  O          4.7190   12.6320    0.5540 O.2    34  PRO34      -0.2718
     25  CB         7.5030   14.1350   -0.5520 C.3    34  PRO34       0.0282
     26  CG         8.8940   14.6660   -0.1890 C.3    34  PRO34       0.0208
     27  CD         9.2080   14.1930    1.2370 C.3    34  PRO34       0.0893
     28  N          6.5780   11.5010    0.8510 N.am   35  ALA35      -0.1980
     29  CA         5.8590   10.2000    0.8010 C.3    35  ALA35       0.1597
     30  C          5.1090    9.9620    2.1170 C.2    35  ALA35       0.2287
     31  O          3.9180    9.7220    2.1270 O.2    35  ALA35      -0.2864
     32  CB         6.8860    9.0860    0.5610 C.3    35  ALA35       0.0319
     33  N          9.9620    0.7940    2.3230 N.3    59  VAL59      -0.1231
     34  CA        10.9860    0.2670    1.3840 C.3    59  VAL59       0.1692
     35  C         12.3210    0.1920    2.1160 C.2    59  VAL59       0.2592
     36  O         13.2280   -0.5020    1.7070 O.2    59  VAL59      -0.2718
     37  CB        11.1100    1.1880    0.1660 C.3    59  VAL59       0.0266
     38  CG1        9.8010    1.1560   -0.6160 C.3    59  VAL59       0.0020
     39  CG2       11.3880    2.6240    0.6180 C.3    59  VAL59       0.0020
     40  N         12.4490    0.9100    3.2030 N.am   60  ASP60      -0.1974
     41  CA        13.7360    0.8910    3.9640 C.3    60  ASP60       0.1709
     42  C         13.7190   -0.1710    5.0740 C.2    60  ASP60       0.2293
     43  O         14.6750   -0.9030    5.2390 O.2    60  ASP60      -0.2864
     44  CB        13.9460    2.2730    4.5870 C.3    60  ASP60       0.1436
     45  CG        14.5060    3.2330    3.5330 C.2    60  ASP60       0.3671
     46  OD1       14.3440    2.9520    2.3580 O.co2  60  ASP60      -0.2456
     47  OD2       15.1020    4.2260    3.9220 O.co2  60  ASP60      -0.2456
     48  N         12.4070   -3.5220    2.9970 N.3    63  GLN63      -0.1245
     49  CA        13.0040   -3.6010    1.6400 C.3    63  GLN63       0.1566
     50  C         12.8070   -5.0020    1.0520 C.2    63  GLN63       0.2260
     51  O         12.7620   -5.1650   -0.1460 O.2    63  GLN63      -0.2867
     52  CB        14.4960   -3.2800    1.7330 C.3    63  GLN63       0.0367
     53  CG        15.2050   -4.3720    2.5300 C.3    63  GLN63       0.0905
     54  CD        16.6270   -3.9120    2.8480 C.2    63  GLN63       0.2608
     55  OE1       16.8260   -3.0390    3.6670 O.2    63  GLN63      -0.2717
     56  NE2       17.6290   -4.4700    2.2290 N.am   63  GLN63      -0.0878
     57  N          9.5630   -4.7970   -0.8050 N.3    66  ALA66      -0.1231
     58  CA         9.6860   -3.9210   -2.0000 C.3    66  ALA66       0.1694
     59  C         10.6160   -4.5570   -3.0310 C.2    66  ALA66       0.2592
     60  O         10.3690   -4.5010   -4.2190 O.2    66  ALA66      -0.2718
     61  CB        10.2390   -2.5560   -1.5720 C.3    66  ALA66       0.0304
     62  N         11.6860   -5.1510   -2.5930 N.am   67  SER67      -0.1952
     63  CA        12.6230   -5.7770   -3.5630 C.3    67  SER67       0.1924
     64  C         11.8910   -6.8760   -4.3320 C.2    67  SER67       0.2314
     65  O         12.1390   -7.1020   -5.4980 O.2    67  SER67      -0.2863
     66  CB        13.8070   -6.3790   -2.8080 C.3    67  SER67       0.2116
     67  OG        13.3330   -7.3880   -1.9270 O.3    67  SER67      -0.2180
     68  N         10.4190   -2.3680   -6.7710 N.3    71  VAL71      -0.1231
     69  CA         9.8760   -0.9820   -6.8250 C.3    71  VAL71       0.1692
     70  C         10.9400   -0.0530   -7.4040 C.2    71  VAL71       0.2592
     71  O         12.0760   -0.0470   -6.9730 O.2    71  VAL71      -0.2718
     72  CB         9.5220   -0.5080   -5.4200 C.3    71  VAL71       0.0266
     73  CG1        8.7990    0.8380   -5.5150 C.3    71  VAL71       0.0020
     74  CG2        8.6110   -1.5400   -4.7510 C.3    71  VAL71       0.0020
     75  N         10.5770    0.7180   -8.3970 N.am   72  LYS72      -0.1966
     76  CA        11.5560    1.6390   -9.0320 C.3    72  LYS72       0.1728
     77  C         11.3430    3.0720   -8.5160 C.2    72  LYS72       0.2616
     78  O         12.1600    3.9450   -8.7380 O.2    72  LYS72      -0.2715
     79  CB        11.3620    1.5750  -10.5520 C.3    72  LYS72       0.0311
     80  CG        11.6030    0.1290  -11.0530 C.3    72  LYS72       0.0038
     81  CD        13.1040   -0.1620  -11.1800 C.3    72  LYS72       0.0206
     82  CE        13.2890   -1.5050  -11.8960 C.3    72  LYS72       0.1093
     83  NZ        14.7410   -1.7970  -12.0640 N.3    72  LYS72      -0.1314
     84  N         10.2660    3.3270   -7.8170 N.am   73  ALA73      -0.1963
     85  CA        10.0440    4.7030   -7.2870 C.3    73  ALA73       0.1728
     86  C          8.9760    4.6880   -6.1890 C.2    73  ALA73       0.2617
     87  O          8.1250    3.8290   -6.1480 O.2    73  ALA73      -0.2715
     88  CB         9.5850    5.6230   -8.4200 C.3    73  ALA73       0.0334
     89  N          9.0080    5.6650   -5.3180 N.am   74  THR74      -0.1937
     90  CA         7.9960    5.7680   -4.2190 C.3    74  THR74       0.2013
     91  C          7.4170    7.1910   -4.2360 C.2    74  THR74       0.2484
     92  O          8.0900    8.1050   -4.6560 O.2    74  THR74      -0.2729
     93  CB         8.6920    5.5110   -2.8700 C.3    74  THR74       0.1807
     94  OG1        9.5650    6.5850   -2.5790 O.3    74  THR74      -0.2208
     95  CG2        9.4760    4.2030   -2.9150 C.3    74  THR74       0.0379
     96  N          6.2020    7.4100   -3.7590 N.am   75  PRO75      -0.2726
     97  CA         5.3100    6.3350   -3.2260 C.3    75  PRO75       0.1402
     98  C          4.6760    5.4770   -4.3270 C.2    75  PRO75       0.2269
     99  O          4.2620    5.9750   -5.3540 O.2    75  PRO75      -0.2865
    100  CB         4.2460    7.1570   -2.4710 C.3    75  PRO75       0.0296
    101  CG         4.2820    8.5920   -3.0230 C.3    75  PRO75       0.0237
    102  CD         5.6370    8.7930   -3.7270 C.3    75  PRO75       0.0939
    103  N          2.0340    4.5860   -9.5420 N.3    90  SER90      -0.1202
    104  CA         2.9650    5.4510   -8.7500 C.3    90  SER90       0.2020
    105  C          2.5670    6.9090   -8.9040 C.2    90  SER90       0.2619
    106  O          1.8620    7.2810   -9.8210 O.2    90  SER90      -0.2717
    107  CB         4.4020    5.3000   -9.2470 C.3    90  SER90       0.2103
    108  OG         4.4690    5.6800  -10.6150 O.3    90  SER90      -0.2182
    109  N          3.0320    7.7370   -8.0070 N.am   91  GLY91      -0.1942
    110  CA         2.7190    9.1950   -8.0680 C.3    91  GLY91       0.2014
    111  C          2.0540    9.6300   -6.7630 C.2    91  GLY91       0.2638
    112  O          1.2530    8.9130   -6.1970 O.2    91  GLY91      -0.2714
    113  N          2.3820   10.7960   -6.2750 N.am   92  ALA92      -0.1977
    114  CA         1.7720   11.2650   -5.0000 C.3    92  ALA92       0.1597
    115  C          0.3310   11.7290   -5.2500 C.2    92  ALA92       0.2287
    116  O          0.0100   12.8930   -5.0990 O.2    92  ALA92      -0.2864
    117  CB         2.6030   12.4340   -4.4530 C.3    92  ALA92       0.0319
@<TRIPOS>BOND
     1    83    82    1
     2    82    81    1
     3    81    80    1
     4    80    79    1
     5   108   107    1
     6    79    76    1
     7   106   105    2
     8   103   104    1
     9   107   104    1
    10    76    77    1
    11    76    75    1
    12   105   104    1
    13   105   109   am
    14    78    77    2
    15    77    84   am
    16    88    85    1
    17    75    70   am
    18   110   109    1
    19   110   111    1
    20    84    85    1
    21    70    71    2
    22    70    69    1
    23    85    86    1
    24    69    68    1
    25    69    72    1
    26   111   113   am
    27   111   112    2
    28   113   114    1
    29    86    87    2
    30    86    89   am
    31    73    72    1
    32    65    64    2
    33    72    74    1
    34    99    98    2
    35    89    90    1
    36   115   116    2
    37   115   114    1
    38   114   117    1
    39    92    91    2
    40    64    63    1
    41    98    97    1
    42    91    90    1
    43    91    96   am
    44    90    93    1
    45    60    59    2
    46    96   102    1
    47    96    97    1
    48   102   101    1
    49    63    66    1
    50    63    62    1
    51    97   100    1
    52    59    62   am
    53    59    58    1
    54   101   100    1
    55    95    93    1
    56    93    94    1
    57    66    67    1
    58    58    61    1
    59    58    57    1
    60    38    37    1
    61    25    26    1
    62    25    22    1
    63    26    27    1
    64    51    50    2
    65    14    12   ar
    66    14    13   ar
    67    20    19    1
    68    37    39    1
    69    37    34    1
    70    12    10   ar
    71    24    23    2
    72    32    29    1
    73    23    22    1
    74    23    28   am
    75    22    21    1
    76    29    28    1
    77    29    30    1
    78    13    11   ar
    79    50    49    1
    80    27    21    1
    81    19    16    1
    82    34    35    1
    83    34    33    1
    84    10     9   ar
    85    10     8   ar
    86    49    52    1
    87    49    48    1
    88    36    35    2
    89    52    53    1
    90    35    40   am
    91    30    31    2
    92     9     7   ar
    93    56    54   am
    94    46    45   ar
    95    11     8   ar
    96    53    54    1
    97     8     6   ar
    98    16    17    1
    99    16    15    1
   100    54    55    2
   101    17    18    2
   102    40    41    1
   103     7     6   ar
   104    45    47   ar
   105    45    44    1
   106    15     3   am
   107     6     5    1
   108    41    44    1
   109    41    42    1
   110     3     4    2
   111     3     2    1
   112    42    43    2
   113     5     2    1
   114     1     2    1
