@<TRIPOS>MOLECULE
tmp/1cqiB01.pdb
 147 137 0 0 0
SMALL
GASTEIGER

@<TRIPOS>ATOM
      1  N         39.2380   23.0600   71.3910 N.3    20  PRO20      -0.2116
      2  CA        38.7370   21.7600   71.8220 C.3    20  PRO20       0.1372
      3  C         37.2840   21.5720   71.4110 C.2    20  PRO20       0.2244
      4  O         36.6460   22.4840   70.8890 O.2    20  PRO20      -0.2868
      5  CB        38.9220   21.8020   73.3380 C.3    20  PRO20       0.0268
      6  CG        38.8500   23.2490   73.6810 C.3    20  PRO20       0.0207
      7  CD        39.5740   23.9180   72.5390 C.3    20  PRO20       0.0892
      8  N         35.8990   19.6560   80.9870 N.3    44  VAL44      -0.1245
      9  CA        36.1450   20.9330   81.6250 C.3    44  VAL44       0.1561
     10  C         34.8640   21.7430   81.5390 C.2    44  VAL44       0.2260
     11  O         34.3070   21.8790   80.4450 O.2    44  VAL44      -0.2867
     12  CB        37.2050   21.7230   80.8750 C.3    44  VAL44       0.0252
     13  CG1       37.7430   22.7820   81.7680 C.3    44  VAL44       0.0019
     14  CG2       38.3070   20.8200   80.3990 C.3    44  VAL44       0.0019
     15  N         33.1260   25.4320   82.1150 N.3    46  LYS46      -0.1245
     16  CA        33.5440   26.7980   82.3400 C.3    46  LYS46       0.1561
     17  C         32.4150   27.8100   82.3380 C.2    46  LYS46       0.2260
     18  O         31.5650   27.7610   81.4430 O.2    46  LYS46      -0.2867
     19  CB        34.5400   27.1520   81.2450 C.3    46  LYS46       0.0271
     20  CG        35.4600   26.0060   80.8950 C.3    46  LYS46       0.0035
     21  CD        36.3650   26.2720   79.7060 C.3    46  LYS46       0.0206
     22  CE        37.4680   27.2710   80.0160 C.3    46  LYS46       0.1093
     23  NZ        38.4930   27.3300   78.9040 N.3    46  LYS46      -0.1314
     24  N         37.9020   38.0120   82.8450 N.3    52  GLY52      -0.1210
     25  CA        38.8550   36.9200   82.9510 C.3    52  GLY52       0.1956
     26  C         39.2070   36.5730   84.4100 C.2    52  GLY52       0.2612
     27  O         38.6050   37.1280   85.3640 O.2    52  GLY52      -0.2717
     28  N         40.1770   35.6580   84.5900 N.am   53  GLY53      -0.1942
     29  CA        40.6100   35.2340   85.9230 C.3    53  GLY53       0.2014
     30  C         39.5660   34.3580   86.5720 C.2    53  GLY53       0.2639
     31  O         39.4410   34.2990   87.8060 O.2    53  GLY53      -0.2714
     32  N         38.8030   33.6910   85.7080 N.am   54  ARG54      -0.1963
     33  CA        37.7320   32.8270   86.1300 C.3    54  ARG54       0.1729
     34  C         38.3770   31.6710   86.8290 C.2    54  ARG54       0.2617
     35  O         37.8480   31.1630   87.8100 O.2    54  ARG54      -0.2715
     36  CB        36.9590   32.3200   84.9310 C.3    54  ARG54       0.0348
     37  CG        36.1820   33.3290   84.1850 C.3    54  ARG54       0.0492
     38  CD        35.6470   32.6380   82.9630 C.3    54  ARG54       0.2205
     39  NE        36.7440   32.2100   82.1070 N.pl3  54  ARG54      -0.0865
     40  CZ        36.6180   31.4780   81.0040 C.cat  54  ARG54       0.5346
     41  NH1       35.4390   31.0670   80.5970 N.pl3  54  ARG54       0.1354
     42  NH2       37.6810   31.1680   80.2840 N.pl3  54  ARG54       0.1354
     43  N         39.5330   31.2610   86.3140 N.am   55  GLY55      -0.1940
     44  CA        40.2560   30.1430   86.9000 C.3    55  GLY55       0.2014
     45  C         40.5050   30.2240   88.4040 C.2    55  GLY55       0.2638
     46  O         40.2170   29.2730   89.1360 O.2    55  GLY55      -0.2714
     47  N         41.0290   31.3580   88.8680 N.am   56  LYS56      -0.1977
     48  CA        41.3380   31.5370   90.2840 C.3    56  LYS56       0.1596
     49  C         40.1420   31.8250   91.1730 C.2    56  LYS56       0.2287
     50  O         40.2750   31.9230   92.3840 O.2    56  LYS56      -0.2864
     51  CB        42.4270   32.6210   90.4540 C.3    56  LYS56       0.0298
     52  CG        43.9040   32.0470   90.4660 C.3    56  LYS56       0.0038
     53  CD        45.0470   33.0900   90.1830 C.3    56  LYS56       0.0206
     54  CE        45.1360   33.5190   88.6540 C.3    56  LYS56       0.1093
     55  NZ        46.2480   34.5020   88.2480 N.3    56  LYS56      -0.1314
     56  N         36.1810   27.6240   86.7260 N.3    60  VAL60      -0.1245
     57  CA        36.6490   26.6530   85.7420 C.3    60  VAL60       0.1561
     58  C         37.1780   25.4600   86.4950 C.2    60  VAL60       0.2260
     59  O         38.2030   25.5650   87.1620 O.2    60  VAL60      -0.2867
     60  CB        37.8110   27.1550   84.9440 C.3    60  VAL60       0.0252
     61  CG1       38.1340   26.1600   83.8880 C.3    60  VAL60       0.0019
     62  CG2       37.5010   28.4730   84.3470 C.3    60  VAL60       0.0019
     63  N         37.7810   20.9550   86.3920 N.3    62  VAL62      -0.1245
     64  CA        37.8880   19.7480   85.5760 C.3    62  VAL62       0.1561
     65  C         37.0840   18.7160   86.3330 C.2    62  VAL62       0.2260
     66  O         37.3160   18.5210   87.5200 O.2    62  VAL62      -0.2867
     67  CB        39.2940   19.2040   85.5390 C.3    62  VAL62       0.0252
     68  CG1       39.2810   17.8790   84.8280 C.3    62  VAL62       0.0019
     69  CG2       40.2180   20.1800   84.8710 C.3    62  VAL62       0.0019
     70  N         33.5480   21.4410   77.6040 N.3    99  GLU99      -0.1231
     71  CA        34.3270   20.9280   76.4880 C.3    99  GLU99       0.1699
     72  C         35.3060   19.8810   77.0140 C.2    99  GLU99       0.2592
     73  O         35.4590   19.6940   78.2420 O.2    99  GLU99      -0.2718
     74  CB        35.0720   22.0620   75.7950 C.3    99  GLU99       0.0402
     75  CG        36.2590   22.5810   76.5730 C.3    99  GLU99       0.1161
     76  CD        36.7130   23.9440   76.0930 C.2    99  GLU99       0.3649
     77  OE1       36.2810   24.3530   74.9650 O.co2  99  GLU99      -0.2457
     78  OE2       37.4970   24.5970   76.8440 O.co2  99  GLU99      -0.2457
     79  N         35.9680   19.2050   76.0780 N.am  100  ALA100     -0.1966
     80  CA        36.9110   18.1530   76.4020 C.3   100  ALA100      0.1728
     81  C         38.2140   18.5940   77.0210 C.2   100  ALA100      0.2616
     82  O         38.8340   19.5620   76.5880 O.2   100  ALA100     -0.2715
     83  CB        37.2020   17.3750   75.1880 C.3   100  ALA100      0.0334
     84  N         38.6410   17.8420   78.0290 N.am  101  ALA101     -0.1963
     85  CA        39.8920   18.1150   78.7370 C.3   101  ALA101      0.1728
     86  C         41.0670   17.8220   77.8090 C.2   101  ALA101      0.2616
     87  O         41.1200   16.7460   77.1740 O.2   101  ALA101     -0.2715
     88  CB        39.9780   17.2440   79.9860 C.3   101  ALA101      0.0334
     89  N         42.0090   18.7560   77.7220 N.am  102  THR102     -0.1951
     90  CA        43.1380   18.5460   76.8490 C.3   102  THR102      0.1897
     91  C         44.4420   18.2390   77.5750 C.2   102  THR102      0.2313
     92  O         44.7260   18.8290   78.6050 O.2   102  THR102     -0.2863
     93  CB        43.2530   19.7250   75.9310 C.3   102  THR102      0.1794
     94  OG1       42.3950   19.4970   74.8040 O.3   102  THR102     -0.2208
     95  CG2       44.6590   19.9150   75.4800 C.3   102  THR102      0.0378
     96  N         47.7150   18.7510   78.6870 N.3   104  ILE104     -0.1245
     97  CA        48.6690   19.8620   78.5900 C.3   104  ILE104      0.1561
     98  C         50.1750   19.6230   78.7690 C.2   104  ILE104      0.2260
     99  O         50.6360   19.1770   79.8350 O.2   104  ILE104     -0.2867
    100  CB        48.2330   21.0280   79.5230 C.3   104  ILE104      0.0252
    101  CG1       47.0070   21.7070   78.9330 C.3   104  ILE104      0.0019
    102  CG2       49.3100   22.0750   79.6400 C.3   104  ILE104      0.0019
    103  CD1       46.4660   22.8070   79.8010 C.3   104  ILE104      0.0001
    104  N         52.2200   25.7300   78.1620 N.3   107  GLU107     -0.1245
    105  CA        51.3370   26.8940   77.8970 C.3   107  GLU107      0.1567
    106  C         52.0300   28.1670   77.3330 C.2   107  GLU107      0.2260
    107  O         52.9060   28.7420   77.9870 O.2   107  GLU107     -0.2867
    108  CB        50.6030   27.2810   79.1860 C.3   107  GLU107      0.0388
    109  CG        50.2680   26.1270   80.1060 C.3   107  GLU107      0.1160
    110  CD        49.1080   26.4360   81.0560 C.2   107  GLU107      0.3649
    111  OE1       49.2010   27.3320   81.9190 O.co2 107  GLU107     -0.2457
    112  OE2       48.0710   25.7740   80.9430 O.co2 107  GLU107     -0.2457
    113  N         49.7850   31.2120   80.5260 N.3   130  GLY130     -0.1225
    114  CA        49.0050   30.9780   81.7250 C.3   130  GLY130      0.1811
    115  C         49.1180   32.0900   82.7410 C.2   130  GLY130      0.2280
    116  O         48.9420   31.8710   83.9320 O.2   130  GLY130     -0.2866
    117  N         44.9750   32.8580   75.4660 N.3   199  ASN199     -0.1226
    118  CA        45.8390   32.5460   76.6100 C.3   199  ASN199      0.1770
    119  C         45.1370   31.5720   77.5300 C.2   199  ASN199      0.2439
    120  O         44.1490   31.9370   78.2120 O.2   199  ASN199     -0.2733
    121  CB        46.1750   33.8090   77.4060 C.3   199  ASN199      0.1168
    122  CG        46.9380   33.5140   78.6950 C.2   199  ASN199      0.2627
    123  OD1       46.6920   32.5040   79.3410 O.2   199  ASN199     -0.2716
    124  ND2       47.8520   34.4150   79.0870 N.am  199  ASN199     -0.0877
    125  N         45.6710   30.3440   77.6410 N.am  200  PRO200     -0.2729
    126  CA        46.8530   29.7610   77.0150 C.3   200  PRO200      0.1401
    127  C         46.7080   29.0870   75.6680 C.2   200  PRO200      0.2269
    128  O         45.6910   28.4170   75.4310 O.2   200  PRO200     -0.2865
    129  CB        47.2550   28.7340   78.0260 C.3   200  PRO200      0.0296
    130  CG        45.9340   28.1690   78.3450 C.3   200  PRO200      0.0237
    131  CD        45.1460   29.4150   78.6470 C.3   200  PRO200      0.0939
    132  N         43.1770   27.1730   73.9090 N.3   212  LEU212     -0.1231
    133  CA        42.3340   26.7970   75.0190 C.3   212  LEU212      0.1693
    134  C         41.3830   27.8400   75.6000 C.2   212  LEU212      0.2592
    135  O         40.4620   27.5080   76.3600 O.2   212  LEU212     -0.2718
    136  CB        43.2130   26.2760   76.1250 C.3   212  LEU212      0.0284
    137  CG        42.9370   24.7910   76.3160 C.3   212  LEU212      0.0019
    138  CD1       43.2240   24.0090   74.9950 C.3   212  LEU212      0.0001
    139  CD2       43.7700   24.2860   77.4810 C.3   212  LEU212      0.0001
    140  N         41.5840   29.0980   75.2360 N.am  213  ASP213     -0.1974
    141  CA        40.7900   30.1830   75.7990 C.3   213  ASP213      0.1709
    142  C         40.9280   31.4160   74.8980 C.2   213  ASP213      0.2293
    143  O         41.9910   31.6930   74.3770 O.2   213  ASP213     -0.2864
    144  CB        41.3120   30.4240   77.2330 C.3   213  ASP213      0.1436
    145  CG        40.7110   31.6510   77.9200 C.2   213  ASP213      0.3671
    146  OD1       39.4750   31.8760   77.7680 O.co2 213  ASP213     -0.2456
    147  OD2       41.4830   32.3700   78.6380 O.co2 213  ASP213     -0.2456
@<TRIPOS>BOND
     1     4     3    2
     2     1     2    1
     3     1     7    1
     4     3     2    1
     5     2     5    1
     6     7     6    1
     7     5     6    1
     8   132   133    1
     9   143   142    2
    10    94    93    1
    11   142   141    1
    12    77    76   ar
    13   138   137    1
    14   133   134    1
    15   133   136    1
    16    83    80    1
    17   140   134   am
    18   140   141    1
    19   128   127    2
    20   117   118    1
    21    95    93    1
    22   134   135    2
    23   127   126    1
    24    74    71    1
    25    74    75    1
    26   141   144    1
    27    93    90    1
    28    79    80    1
    29    79    72   am
    30    76    75    1
    31    76    78   ar
    32   136   137    1
    33   137   139    1
    34    80    81    1
    35    71    72    1
    36    71    70    1
    37    82    81    2
    38   118   121    1
    39   118   119    1
    40    90    91    1
    41    90    89    1
    42    72    73    2
    43   126   125    1
    44   126   129    1
    45    81    84   am
    46    87    86    2
    47   144   145    1
    48   106   105    1
    49   106   107    2
    50   121   122    1
    51   119   125   am
    52   119   120    2
    53    91    92    2
    54   125   131    1
    55    89    86   am
    56   146   145   ar
    57    86    85    1
    58   105   104    1
    59   105   108    1
    60   145   147   ar
    61   129   130    1
    62    84    85    1
    63   130   131    1
    64    97    96    1
    65    97    98    1
    66    97   100    1
    67   122   124   am
    68   122   123    2
    69    85    88    1
    70    98    99    2
    71    23    22    1
    72   101   100    1
    73   101   103    1
    74   108   109    1
    75   100   102    1
    76    21    22    1
    77    21    20    1
    78   109   110    1
    79    42    40    1
    80    14    12    1
    81    11    10    2
    82   113   114    1
    83    41    40    1
    84    12     9    1
    85    12    13    1
    86    20    19    1
    87   112   110   ar
    88     8     9    1
    89    40    39    2
    90   110   111   ar
    91    19    16    1
    92    18    17    2
    93    10     9    1
    94   114   115    1
    95    39    38    1
    96    15    16    1
    97    17    16    1
    98   115   116    2
    99    24    25    1
   100    25    26    1
   101    38    37    1
   102    61    60    1
   103    37    36    1
   104    62    60    1
   105    26    28   am
   106    26    27    2
   107    28    29    1
   108    68    67    1
   109    69    67    1
   110    36    33    1
   111    60    57    1
   112    67    64    1
   113    64    65    1
   114    64    63    1
   115    32    33    1
   116    32    30   am
   117    57    58    1
   118    57    56    1
   119    29    30    1
   120    33    34    1
   121    43    34   am
   122    43    44    1
   123    65    66    2
   124    58    59    2
   125    30    31    2
   126    34    35    2
   127    44    45    1
   128    55    54    1
   129    45    47   am
   130    45    46    2
   131    54    53    1
   132    47    48    1
   133    53    52    1
   134    48    51    1
   135    48    49    1
   136    51    52    1
   137    49    50    2
