@<TRIPOS>MOLECULE
tmp/1cqpA00.pdb
 170 158 0 0 0
SMALL
GASTEIGER

@<TRIPOS>ATOM
      1  N         42.4630   26.8660   26.0600 N.3     3  VAL3       -0.1245
      2  CA        42.7570   25.5390   25.5080 C.3     3  VAL3        0.1561
      3  C         42.0320   24.4320   26.2580 C.2     3  VAL3        0.2260
      4  O         42.1520   24.3150   27.4840 O.2     3  VAL3       -0.2867
      5  CB        44.2440   25.2270   25.5120 C.3     3  VAL3        0.0252
      6  CG1       44.5100   23.9330   24.7990 C.3     3  VAL3        0.0019
      7  CG2       45.0020   26.3540   24.8800 C.3     3  VAL3        0.0019
      8  N         41.9400   20.7340   26.4540 N.3     5  LEU5       -0.1245
      9  CA        42.7740   19.5900   26.0980 C.3     5  LEU5        0.1561
     10  C         42.2480   18.2440   26.5790 C.2     5  LEU5        0.2260
     11  O         41.9590   18.0720   27.7610 O.2     5  LEU5       -0.2867
     12  CB        44.1900   19.8210   26.6560 C.3     5  LEU5        0.0270
     13  CG        45.3610   18.9590   26.1690 C.3     5  LEU5        0.0019
     14  CD1       46.6290   19.7630   26.1780 C.3     5  LEU5        0.0001
     15  CD2       45.5110   17.7390   27.0310 C.3     5  LEU5        0.0001
     16  N         43.0480   14.1120   26.8580 N.3     7  PHE7       -0.1241
     17  CA        44.0510   13.0390   26.7480 C.3     7  PHE7        0.1605
     18  C         43.2930   11.7630   26.3560 C.2     7  PHE7        0.2264
     19  O         42.3730   11.3260   27.0630 O.2     7  PHE7       -0.2867
     20  CB        44.6950   12.7430   28.0870 C.3     7  PHE7        0.0534
     21  CG        45.6330   13.7910   28.5630 C.ar    7  PHE7       -0.0203
     22  CD1       45.3390   14.5190   29.7070 C.ar    7  PHE7       -0.0042
     23  CD2       46.8640   13.9800   27.9370 C.ar    7  PHE7       -0.0042
     24  CE1       46.2560   15.4150   30.2330 C.ar    7  PHE7       -0.0003
     25  CE2       47.7870   14.8740   28.4550 C.ar    7  PHE7       -0.0003
     26  CZ        47.4830   15.5960   29.6100 C.ar    7  PHE7       -0.0000
     27  N         52.3680   10.6060   33.3850 N.3    26  PHE26      -0.1241
     28  CA        52.6910   11.6440   32.4170 C.3    26  PHE26       0.1605
     29  C         51.5230   12.6460   32.4300 C.2    26  PHE26       0.2264
     30  O         51.7230   13.8630   32.5860 O.2    26  PHE26      -0.2867
     31  CB        52.8210   11.0360   31.0150 C.3    26  PHE26       0.0534
     32  CG        53.1280   12.0350   29.9540 C.ar   26  PHE26      -0.0203
     33  CD1       54.3270   12.7420   29.9760 C.ar   26  PHE26      -0.0042
     34  CD2       52.2110   12.2920   28.9460 C.ar   26  PHE26      -0.0042
     35  CE1       54.6110   13.7050   29.0040 C.ar   26  PHE26      -0.0003
     36  CE2       52.4820   13.2480   27.9680 C.ar   26  PHE26      -0.0003
     37  CZ        53.6920   13.9610   27.9990 C.ar   26  PHE26      -0.0000
     38  N         51.8440   16.7580   33.4680 N.3    30  VAL30      -0.1245
     39  CA        51.3690   17.8640   32.6410 C.3    30  VAL30       0.1561
     40  C         50.2360   18.6580   33.3020 C.2    30  VAL30       0.2260
     41  O         50.2830   19.8760   33.3400 O.2    30  VAL30      -0.2867
     42  CB        50.8700   17.3730   31.2720 C.3    30  VAL30       0.0252
     43  CG1       50.2750   18.5430   30.4560 C.3    30  VAL30       0.0019
     44  CG2       52.0080   16.7440   30.5050 C.3    30  VAL30       0.0019
     45  N         50.3690   22.6440   34.5280 N.3    34  LEU34      -0.1245
     46  CA        49.4480   23.6350   33.9700 C.3    34  LEU34       0.1561
     47  C         48.2180   23.9220   34.8270 C.2    34  LEU34       0.2260
     48  O         47.1810   24.3710   34.3200 O.2    34  LEU34      -0.2867
     49  CB        49.0020   23.2110   32.5820 C.3    34  LEU34       0.0270
     50  CG        50.1200   22.8850   31.5950 C.3    34  LEU34       0.0019
     51  CD1       49.4670   22.5700   30.2820 C.3    34  LEU34       0.0001
     52  CD2       51.0990   24.0300   31.4260 C.3    34  LEU34       0.0001
     53  N         44.2910   26.4120   30.6680 N.3    39  TYR39      -0.1241
     54  CA        44.0410   25.0510   30.2120 C.3    39  TYR39       0.1605
     55  C         42.9990   24.3210   31.0410 C.2    39  TYR39       0.2264
     56  O         42.9700   24.4310   32.2680 O.2    39  TYR39      -0.2867
     57  CB        45.3410   24.2660   30.2410 C.3    39  TYR39       0.0534
     58  CG        46.3600   24.7840   29.2640 C.ar   39  TYR39      -0.0201
     59  CD1       47.2980   25.7670   29.6220 C.ar   39  TYR39      -0.0009
     60  CD2       46.3820   24.3000   27.9720 C.ar   39  TYR39      -0.0009
     61  CE1       48.2350   26.2430   28.6860 C.ar   39  TYR39       0.0417
     62  CE2       47.2950   24.7650   27.0380 C.ar   39  TYR39       0.0417
     63  CZ        48.2200   25.7280   27.3880 C.ar   39  TYR39       0.1957
     64  OH        49.1180   26.1340   26.4110 O.3    39  TYR39      -0.2866
     65  N         42.2960   20.8290   21.5880 N.3   106  VAL106     -0.1245
     66  CA        43.5190   20.0570   21.3510 C.3   106  VAL106      0.1561
     67  C         43.2170   18.6350   21.8480 C.2   106  VAL106      0.2260
     68  O         42.5090   18.4620   22.8510 O.2   106  VAL106     -0.2867
     69  CB        44.7540   20.6400   22.1470 C.3   106  VAL106      0.0252
     70  CG1       46.0520   19.9150   21.7920 C.3   106  VAL106      0.0019
     71  CG2       44.9390   22.0870   21.8470 C.3   106  VAL106      0.0019
     72  N         45.3340   14.9820   22.6060 N.3   108  ILE108     -0.1245
     73  CA        46.5930   14.2390   22.6730 C.3   108  ILE108      0.1561
     74  C         46.3580   12.7440   22.8060 C.2   108  ILE108      0.2260
     75  O         45.8250   12.2830   23.8030 O.2   108  ILE108     -0.2867
     76  CB        47.4550   14.7260   23.8250 C.3   108  ILE108      0.0252
     77  CG1       47.8750   16.1660   23.5430 C.3   108  ILE108      0.0019
     78  CG2       48.6690   13.8010   24.0080 C.3   108  ILE108      0.0019
     79  CD1       48.6910   16.7350   24.6060 C.3   108  ILE108      0.0001
     80  N         42.9100   19.9080   17.1330 N.3   128  ILE128     -0.1245
     81  CA        44.3510   19.7710   16.9180 C.3   128  ILE128      0.1561
     82  C         44.7470   18.4390   17.5280 C.2   128  ILE128      0.2260
     83  O         44.4980   18.1740   18.7100 O.2   128  ILE128     -0.2867
     84  CB        45.1350   20.9510   17.5010 C.3   128  ILE128      0.0252
     85  CG1       44.7590   22.2170   16.7200 C.3   128  ILE128      0.0019
     86  CG2       46.6550   20.7200   17.3800 C.3   128  ILE128      0.0019
     87  CD1       45.1910   23.5170   17.3790 C.3   128  ILE128      0.0001
     88  N         47.5850   15.6360   18.3480 N.3   130  TYR130     -0.1241
     89  CA        48.9510   15.2010   18.5710 C.3   130  TYR130      0.1605
     90  C         48.9150   13.6910   18.7990 C.2   130  TYR130      0.2264
     91  O         48.0110   13.1710   19.4330 O.2   130  TYR130     -0.2867
     92  CB        49.5300   15.8690   19.8120 C.3   130  TYR130      0.0534
     93  CG        49.9910   17.2740   19.5870 C.ar  130  TYR130     -0.0201
     94  CD1       49.1290   18.3500   19.8040 C.ar  130  TYR130     -0.0009
     95  CD2       51.2950   17.5360   19.1750 C.ar  130  TYR130     -0.0009
     96  CE1       49.5450   19.6370   19.6230 C.ar  130  TYR130      0.0417
     97  CE2       51.7240   18.8210   18.9880 C.ar  130  TYR130      0.0417
     98  CZ        50.8430   19.8720   19.2160 C.ar  130  TYR130      0.1957
     99  OH        51.2690   21.1610   19.0360 O.3   130  TYR130     -0.2866
    100  N         51.1710   10.4200   20.1690 N.3   132  ILE132     -0.1245
    101  CA        52.3750    9.9100   20.8020 C.3   132  ILE132      0.1561
    102  C         52.3670    8.3780   20.7170 C.2   132  ILE132      0.2260
    103  O         51.5320    7.7150   21.3470 O.2   132  ILE132     -0.2867
    104  CB        52.4440   10.3450   22.2590 C.3   132  ILE132      0.0252
    105  CG1       52.3750   11.8670   22.3360 C.3   132  ILE132      0.0019
    106  CG2       53.7150    9.8120   22.9090 C.3   132  ILE132      0.0019
    107  CD1       52.3120   12.3920   23.7330 C.3   132  ILE132      0.0001
    108  N         55.4220   17.4060   12.8890 N.3   157  GLU157     -0.1231
    109  CA        55.1720   18.3510   13.9640 C.3   157  GLU157      0.1699
    110  C         54.1350   17.8060   14.9300 C.2   157  GLU157      0.2592
    111  O         54.1290   18.1620   16.0900 O.2   157  GLU157     -0.2718
    112  CB        54.7110   19.7030   13.4110 C.3   157  GLU157      0.0402
    113  CG        54.5850   20.7880   14.4840 C.3   157  GLU157      0.1161
    114  CD        53.8640   22.0350   13.9970 C.2   157  GLU157      0.3649
    115  OE1       53.9530   22.3360   12.7870 O.co2 157  GLU157     -0.2457
    116  OE2       53.2030   22.7110   14.8210 O.co2 157  GLU157     -0.2457
    117  N         53.2700   16.9240   14.4580 N.am  158  PHE158     -0.1976
    118  CA        52.2530   16.3880   15.3230 C.3   158  PHE158      0.1639
    119  C         52.3760   14.9470   15.7870 C.2   158  PHE158      0.2290
    120  O         51.6560   14.5350   16.7140 O.2   158  PHE158     -0.2864
    121  CB        50.9120   16.6370   14.7050 C.3   158  PHE158      0.0560
    122  CG        50.5580   18.0620   14.6780 C.ar  158  PHE158     -0.0200
    123  CD1       50.8390   18.8320   13.5730 C.ar  158  PHE158     -0.0042
    124  CD2       49.9570   18.6480   15.7690 C.ar  158  PHE158     -0.0042
    125  CE1       50.5260   20.1610   13.5580 C.ar  158  PHE158     -0.0003
    126  CE2       49.6390   19.9740   15.7680 C.ar  158  PHE158     -0.0003
    127  CZ        49.9190   20.7360   14.6650 C.ar  158  PHE158     -0.0000
    128  N         54.7560   12.0530   17.5480 N.3   160  LYS160     -0.1245
    129  CA        55.9190   11.7790   18.4090 C.3   160  LYS160      0.1561
    130  C         56.0630   10.2630   18.6110 C.2   160  LYS160      0.2260
    131  O         55.1360    9.5850   19.0680 O.2   160  LYS160     -0.2867
    132  CB        55.7850   12.4020   19.8110 C.3   160  LYS160      0.0271
    133  CG        55.0930   13.7480   19.9130 C.3   160  LYS160      0.0035
    134  CD        56.0050   14.8700   19.5480 C.3   160  LYS160      0.0206
    135  CE        55.2150   16.1520   19.3740 C.3   160  LYS160      0.1093
    136  NZ        56.0470   17.2050   18.6870 N.3   160  LYS160     -0.1314
    137  N         60.0050   13.6550   27.5180 N.3   171  LEU171     -0.1245
    138  CA        59.0730   14.4550   26.7450 C.3   171  LEU171      0.1561
    139  C         58.5120   15.5870   27.6160 C.2   171  LEU171      0.2260
    140  O         58.2490   16.6900   27.1190 O.2   171  LEU171     -0.2867
    141  CB        57.9410   13.5690   26.2300 C.3   171  LEU171      0.0270
    142  CG        56.9430   14.2370   25.2960 C.3   171  LEU171      0.0019
    143  CD1       57.6160   14.4930   23.9680 C.3   171  LEU171      0.0001
    144  CD2       55.7390   13.3570   25.1230 C.3   171  LEU171      0.0001
    145  N         60.9900   18.4020   27.9830 N.3   174  GLU174     -0.1231
    146  CA        61.0410   19.1670   26.7410 C.3   174  GLU174      0.1699
    147  C         59.8410   20.1020   26.6800 C.2   174  GLU174      0.2592
    148  O         59.9220   21.1900   26.1250 O.2   174  GLU174     -0.2718
    149  CB        61.0370   18.2010   25.5670 C.3   174  GLU174      0.0402
    150  CG        61.2210   18.8210   24.1940 C.3   174  GLU174      0.1161
    151  CD        60.9460   17.8270   23.0440 C.2   174  GLU174      0.3649
    152  OE1       60.4460   18.2730   21.9820 O.co2 174  GLU174     -0.2457
    153  OE2       61.2210   16.6070   23.1940 O.co2 174  GLU174     -0.2457
    154  N         58.7280   19.6570   27.2570 N.am  175  LEU175     -0.1980
    155  CA        57.5010   20.4470   27.3120 C.3   175  LEU175      0.1596
    156  C         57.7630   21.5910   28.2800 C.2   175  LEU175      0.2287
    157  O         57.4880   22.7370   27.9540 O.2   175  LEU175     -0.2864
    158  CB        56.3060   19.6030   27.8140 C.3   175  LEU175      0.0297
    159  CG        54.9670   20.2850   28.1520 C.3   175  LEU175      0.0022
    160  CD1       54.1560   20.4580   26.8960 C.3   175  LEU175      0.0001
    161  CD2       54.1820   19.4740   29.1300 C.3   175  LEU175      0.0001
    162  N         59.2410   25.1210   27.2820 N.3   178  LYS178     -0.1245
    163  CA        58.4350   25.9630   26.4040 C.3   178  LYS178      0.1561
    164  C         57.3490   26.6550   27.1810 C.2   178  LYS178      0.2260
    165  O         56.4460   27.2280   26.5880 O.2   178  LYS178     -0.2867
    166  CB        57.7870   25.1540   25.2790 C.3   178  LYS178      0.0271
    167  CG        58.7050   24.8220   24.1340 C.3   178  LYS178      0.0035
    168  CD        59.4040   23.5140   24.3440 C.3   178  LYS178      0.0206
    169  CE        60.1510   23.0990   23.0740 C.3   178  LYS178      0.1093
    170  NZ        60.6850   21.6910   23.0910 N.3   178  LYS178     -0.1314
@<TRIPOS>BOND
     1   115   114   ar
     2   108   109    1
     3   112   109    1
     4   112   113    1
     5   125   123   ar
     6   125   127   ar
     7   123   122   ar
     8   109   110    1
     9   114   113    1
    10   114   116   ar
    11   117   110   am
    12   117   118    1
    13   127   126   ar
    14   122   121    1
    15   122   124   ar
    16   121   118    1
    17   110   111    2
    18   118   119    1
    19   126   124   ar
    20   119   120    2
    21    85    87    1
    22    85    84    1
    23    81    80    1
    24    81    84    1
    25    81    82    1
    26    86    84    1
    27    82    83    2
    28   128   129    1
    29    88    89    1
    30   129   130    1
    31   129   132    1
    32    89    90    1
    33    89    92    1
    34   130   131    2
    35   136   135    1
    36    90    91    2
    37    97    95   ar
    38    97    98   ar
    39    99    98    1
    40    95    93   ar
    41    98    96   ar
    42   135   134    1
    43   134   133    1
    44    93    94   ar
    45    93    92    1
    46    96    94   ar
    47   132   133    1
    48   100   101    1
    49   102   101    1
    50   102   103    2
    51   101   104    1
    52    66    65    1
    53    66    67    1
    54    66    69    1
    55    70    69    1
    56    71    69    1
    57    67    68    2
    58   152   151   ar
    59   104   105    1
    60   104   106    1
    61   105   107    1
    62    72    73    1
    63    73    74    1
    64    73    76    1
    65    74    75    2
    66   151   153   ar
    67   151   150    1
    68   169   170    1
    69   169   168    1
    70    77    76    1
    71    77    79    1
    72    76    78    1
    73   143   142    1
    74   167   168    1
    75   167   166    1
    76   150   149    1
    77     6     5    1
    78     7     5    1
    79   144   142    1
    80   166   163    1
    81   142   141    1
    82     2     5    1
    83     2     1    1
    84     2     3    1
    85   149   146    1
    86     9     8    1
    87     9    10    1
    88     9    12    1
    89   148   147    2
    90    13    14    1
    91    13    12    1
    92    13    15    1
    93   141   138    1
    94     3     4    2
    95    18    17    1
    96    18    19    2
    97   163   164    1
    98   163   162    1
    99    64    63    1
   100    10    11    2
   101   165   164    2
   102   147   146    1
   103   147   154   am
   104   146   145    1
   105   138   137    1
   106   138   139    1
   107    17    16    1
   108    17    20    1
   109   160   159    1
   110    62    63   ar
   111    62    60   ar
   112   140   139    2
   113   154   155    1
   114   155   158    1
   115   155   156    1
   116    63    61   ar
   117   158   159    1
   118    23    25   ar
   119    23    21   ar
   120   157   156    2
   121    36    37   ar
   122    36    34   ar
   123    60    58   ar
   124    37    35   ar
   125    20    21    1
   126   159   161    1
   127    25    26   ar
   128    21    22   ar
   129    61    59   ar
   130    34    32   ar
   131    35    33   ar
   132    58    59   ar
   133    58    57    1
   134    26    24   ar
   135    22    24   ar
   136    32    33   ar
   137    32    31    1
   138    54    57    1
   139    54    53    1
   140    54    55    1
   141    51    50    1
   142    43    42    1
   143    44    42    1
   144    31    28    1
   145    55    56    2
   146    42    39    1
   147    52    50    1
   148    50    49    1
   149    28    29    1
   150    28    27    1
   151    29    30    2
   152    49    46    1
   153    39    40    1
   154    39    38    1
   155    40    41    2
   156    46    45    1
   157    46    47    1
   158    48    47    2
