@<TRIPOS>MOLECULE
tmp/1cqqA00.pdb
 205 197 0 0 0
SMALL
GASTEIGER

@<TRIPOS>ATOM
      1  N          1.2690   -3.5600   41.3620 N.3    22  ASN22      -0.1225
      2  CA         1.5440   -4.4440   40.1800 C.3    22  ASN22       0.1785
      3  C          2.5440   -5.6160   40.4530 C.2    22  ASN22       0.2598
      4  O          2.7330   -6.5440   39.6400 O.2    22  ASN22      -0.2718
      5  CB         1.9890   -3.4850   39.0160 C.3    22  ASN22       0.1169
      6  CG         0.7850   -2.6760   38.4740 C.2    22  ASN22       0.2627
      7  OD1       -0.2610   -2.6000   39.1140 O.2    22  ASN22      -0.2716
      8  ND2        0.8300   -1.9510   37.3660 N.am   22  ASN22      -0.0877
      9  N          3.2380   -5.6220   41.6170 N.am   23  GLY23      -0.1942
     10  CA         4.1760   -6.7250   41.9740 C.3    23  GLY23       0.2014
     11  C          5.5700   -6.2350   42.3600 C.2    23  GLY23       0.2639
     12  O          5.7200   -5.0690   42.7210 O.2    23  GLY23      -0.2714
     13  N          6.6000   -7.0620   42.3560 N.am   24  LYS24      -0.1963
     14  CA         7.9480   -6.5470   42.7140 C.3    24  LYS24       0.1728
     15  C          8.8120   -6.2680   41.4890 C.2    24  LYS24       0.2616
     16  O          8.8290   -7.0460   40.5220 O.2    24  LYS24      -0.2715
     17  CB         8.6640   -7.5400   43.5950 C.3    24  LYS24       0.0311
     18  CG         7.8040   -7.9020   44.8510 C.3    24  LYS24       0.0038
     19  CD         8.2970   -9.2350   45.4510 C.3    24  LYS24       0.0206
     20  CE         7.4420   -9.9170   46.5690 C.3    24  LYS24       0.1093
     21  NZ         6.3840  -10.8450   46.0390 N.3    24  LYS24      -0.1314
     22  N          9.5300   -5.1540   41.5080 N.am   25  PHE25      -0.1974
     23  CA        10.3910   -4.7040   40.3730 C.3    25  PHE25       0.1639
     24  C         11.8480   -4.3960   40.7850 C.2    25  PHE25       0.2290
     25  O         12.1110   -4.0470   41.9440 O.2    25  PHE25      -0.2864
     26  CB         9.8180   -3.4010   39.7520 C.3    25  PHE25       0.0560
     27  CG         8.4650   -3.5770   39.2130 C.ar   25  PHE25      -0.0200
     28  CD1        8.2820   -3.9060   37.8520 C.ar   25  PHE25      -0.0042
     29  CD2        7.3560   -3.4990   40.0910 C.ar   25  PHE25      -0.0042
     30  CE1        6.9900   -4.1620   37.3780 C.ar   25  PHE25      -0.0003
     31  CE2        6.0620   -3.7600   39.6060 C.ar   25  PHE25      -0.0003
     32  CZ         5.8910   -4.0960   38.2480 C.ar   25  PHE25      -0.0000
     33  N          5.4170    0.8280   33.9290 N.3    40  HIS40      -0.1241
     34  CA         4.3090   -0.1030   34.1830 C.3    40  HIS40       0.1621
     35  C          4.3870   -0.6690   35.6070 C.2    40  HIS40       0.2264
     36  O          3.5610   -1.4830   35.9770 O.2    40  HIS40      -0.2867
     37  CB         4.2230   -1.3080   33.1740 C.3    40  HIS40       0.0745
     38  CG         5.2670   -2.3500   33.2720 C.ar   40  HIS40       0.0817
     39  ND1        6.5000   -2.3280   32.6730 N.ar   40  HIS40      -0.2268
     40  CD2        5.2170   -3.4540   34.1160 C.ar   40  HIS40       0.1154
     41  CE1        7.2130   -3.4030   33.1150 C.ar   40  HIS40       0.1986
     42  NE2        6.4180   -4.0900   34.0000 N.ar   40  HIS40      -0.2212
     43  N          5.9390    7.6920   25.4270 N.3    69  LYS69      -0.1245
     44  CA         6.5560    7.2610   26.6770 C.3    69  LYS69       0.1561
     45  C          7.9030    6.5680   26.4940 C.2    69  LYS69       0.2260
     46  O          8.1180    5.8760   25.5020 O.2    69  LYS69      -0.2867
     47  CB         5.6680    6.2530   27.3960 C.3    69  LYS69       0.0271
     48  CG         4.5940    6.9000   28.2800 C.3    69  LYS69       0.0035
     49  CD         3.9170    5.8380   29.0880 C.3    69  LYS69       0.0206
     50  CE         3.0410    6.4970   30.0860 C.3    69  LYS69       0.1093
     51  NZ         2.1150    5.4350   30.4130 N.3    69  LYS69      -0.1314
     52  N          9.0540    4.6670   29.0610 N.3    71  GLU71      -0.1245
     53  CA         8.7850    3.5490   29.9890 C.3    71  GLU71       0.1567
     54  C          9.7140    3.5100   31.2130 C.2    71  GLU71       0.2260
     55  O          9.9380    2.5220   31.9060 O.2    71  GLU71      -0.2867
     56  CB         8.8510    2.2370   29.2030 C.3    71  GLU71       0.0388
     57  CG         8.3340    0.9460   29.8310 C.3    71  GLU71       0.1160
     58  CD         6.9230    0.9500   30.4770 C.2    71  GLU71       0.3649
     59  OE1        6.7810    0.1670   31.4230 O.co2  71  GLU71      -0.2457
     60  OE2        5.9930    1.6540   30.0540 O.co2  71  GLU71      -0.2457
     61  N         12.2060  -10.6930   42.2090 N.3   107  ASN107     -0.1240
     62  CA        11.6840  -11.9920   41.7120 C.3   107  ASN107      0.1653
     63  C         12.7720  -13.0570   41.5080 C.2   107  ASN107      0.2266
     64  O         12.5710  -14.1930   41.1050 O.2   107  ASN107     -0.2867
     65  CB        10.8550  -11.7450   40.4150 C.3   107  ASN107      0.1155
     66  CG         9.8550  -10.6150   40.6680 C.2   107  ASN107      0.2627
     67  OD1        8.9690  -10.6870   41.5110 O.2   107  ASN107     -0.2716
     68  ND2        9.9020   -9.5210   39.9510 N.am  107  ASN107     -0.0877
     69  N         16.8860    0.0010   19.0250 N.3   122  TYR122     -0.1241
     70  CA        15.8420   -0.4980   18.1270 C.3   122  TYR122      0.1605
     71  C         14.6780    0.4330   17.7750 C.2   122  TYR122      0.2264
     72  O         13.7960    0.0430   17.0080 O.2   122  TYR122     -0.2867
     73  CB        15.4440   -1.7890   18.8300 C.3   122  TYR122      0.0534
     74  CG        14.7190   -2.7710   18.0320 C.ar  122  TYR122     -0.0201
     75  CD1       15.3850   -3.5030   17.0540 C.ar  122  TYR122     -0.0009
     76  CD2       13.3460   -2.9840   18.2990 C.ar  122  TYR122     -0.0009
     77  CE1       14.6820   -4.4840   16.3540 C.ar  122  TYR122      0.0417
     78  CE2       12.6410   -3.9620   17.6030 C.ar  122  TYR122      0.0417
     79  CZ        13.3290   -4.7040   16.6360 C.ar  122  TYR122      0.1957
     80  OH        12.6910   -5.7470   16.0300 O.3   122  TYR122     -0.2866
     81  N          8.6870    0.6440   19.8260 N.3   125  ILE125     -0.1231
     82  CA         7.9920   -0.6480   19.7480 C.3   125  ILE125      0.1692
     83  C          6.6120   -0.5110   20.4070 C.2   125  ILE125      0.2592
     84  O          6.2190    0.5380   20.9060 O.2   125  ILE125     -0.2718
     85  CB         8.7040   -1.8770   20.4540 C.3   125  ILE125      0.0266
     86  CG1        8.7920   -1.7570   21.9970 C.3   125  ILE125      0.0019
     87  CG2       10.0570   -2.0430   19.7130 C.3   125  ILE125      0.0020
     88  CD1        9.1370   -3.1360   22.5230 C.3   125  ILE125      0.0001
     89  N          5.7980   -1.5290   20.2770 N.am  126  LEU126     -0.1966
     90  CA         4.4580   -1.5670   20.8730 C.3   126  LEU126      0.1728
     91  C          4.4850   -2.5890   22.0260 C.2   126  LEU126      0.2616
     92  O          4.5710   -3.7970   21.8200 O.2   126  LEU126     -0.2715
     93  CB         3.5440   -1.9490   19.6960 C.3   126  LEU126      0.0311
     94  CG         2.2450   -1.1770   19.3760 C.3   126  LEU126      0.0022
     95  CD1        2.4650    0.3570   19.2780 C.3   126  LEU126      0.0001
     96  CD2        1.6990   -1.7830   18.0510 C.3   126  LEU126      0.0001
     97  N          4.5630   -2.1610   23.2660 N.am  127  LEU127     -0.1963
     98  CA         4.5730   -3.0720   24.4370 C.3   127  LEU127      0.1728
     99  C          3.1310   -3.3300   24.8840 C.2   127  LEU127      0.2616
    100  O          2.4530   -2.3870   25.2650 O.2   127  LEU127     -0.2715
    101  CB         5.4440   -2.3670   25.5270 C.3   127  LEU127      0.0311
    102  CG         6.5670   -3.1720   26.2460 C.3   127  LEU127      0.0022
    103  CD1        7.2910   -4.1860   25.3750 C.3   127  LEU127      0.0001
    104  CD2        7.5840   -2.1380   26.7180 C.3   127  LEU127      0.0001
    105  N          2.5630   -4.5120   24.7790 N.am  128  SER128     -0.1950
    106  CA         1.1440   -4.7810   25.1860 C.3   128  SER128      0.1924
    107  C          0.1680   -3.7670   24.6200 C.2   128  SER128      0.2314
    108  O         -0.7430   -3.2430   25.2740 O.2   128  SER128     -0.2863
    109  CB         1.0190   -4.7770   26.7130 C.3   128  SER128      0.2116
    110  OG         1.5600   -5.9840   27.2180 O.3   128  SER128     -0.2180
    111  N          0.9100   -0.6700   23.7740 N.3   130  ASN130     -0.1240
    112  CA         1.4220    0.7130   24.0140 C.3   130  ASN130      0.1653
    113  C          2.6700    1.2150   23.3020 C.2   130  ASN130      0.2266
    114  O          3.7270    0.6350   23.5180 O.2   130  ASN130     -0.2867
    115  CB         1.6610    0.8610   25.5070 C.3   130  ASN130      0.1155
    116  CG         0.3910    0.5620   26.2140 C.2   130  ASN130      0.2627
    117  OD1       -0.5090    1.3750   26.1800 O.2   130  ASN130     -0.2716
    118  ND2        0.2040   -0.5600   26.8250 N.am  130  ASN130     -0.0877
    119  N          6.0950    2.6890   22.7220 N.3   132  THR132     -0.1218
    120  CA         7.2170    2.9970   23.6510 C.3   132  THR132      0.1862
    121  C          8.4500    3.3570   22.8770 C.2   132  THR132      0.2287
    122  O          8.8180    2.6940   21.9220 O.2   132  THR132     -0.2866
    123  CB         7.5510    1.8020   24.5050 C.3   132  THR132      0.1770
    124  OG1        6.3730    1.3170   25.1320 O.3   132  THR132     -0.2211
    125  CG2        8.5250    2.2040   25.5850 C.3   132  THR132      0.0375
    126  N         14.4010  -13.3180   27.8170 N.3   142  THR142     -0.1203
    127  CA        14.0700  -12.7710   29.1570 C.3   142  THR142      0.1994
    128  C         12.6750  -13.2130   29.5980 C.2   142  THR142      0.2618
    129  O         11.7470  -13.4390   28.8050 O.2   142  THR142     -0.2717
    130  CB        14.1060  -11.2180   29.1560 C.3   142  THR142      0.1784
    131  OG1       13.3310  -10.7200   28.0740 O.3   142  THR142     -0.2211
    132  CG2       15.5360  -10.7000   29.0140 C.3   142  THR142      0.0376
    133  N         12.4870  -13.3680   30.9080 N.am  143  LYS143     -0.1965
    134  CA        11.1720  -13.8360   31.4500 C.3   143  LYS143      0.1728
    135  C         10.4100  -12.8250   32.2990 C.2   143  LYS143      0.2617
    136  O         10.8090  -11.7020   32.6190 O.2   143  LYS143     -0.2715
    137  CB        11.3570  -15.0920   32.3310 C.3   143  LYS143      0.0311
    138  CG        12.6210  -15.8590   31.9400 C.3   143  LYS143      0.0038
    139  CD        12.9260  -17.1090   32.7460 C.3   143  LYS143      0.0206
    140  CE        12.1490  -18.3080   32.2200 C.3   143  LYS143      0.1093
    141  NZ        12.4860  -18.5420   30.7970 N.3   143  LYS143     -0.1314
    142  N          9.2110  -13.2130   32.6230 N.am  144  SER144     -0.1936
    143  CA         8.4000  -12.3390   33.5060 C.3   144  SER144      0.2055
    144  C          9.1610  -12.2630   34.8330 C.2   144  SER144      0.2643
    145  O          9.7770  -13.2570   35.2250 O.2   144  SER144     -0.2714
    146  CB         7.0160  -12.9610   33.7570 C.3   144  SER144      0.2130
    147  OG         7.2140  -14.2880   34.2570 O.3   144  SER144     -0.2179
    148  N          9.0720  -11.1610   35.5700 N.am  145  GLY145     -0.1954
    149  CA         9.8500  -11.0510   36.8150 C.3   145  GLY145      0.1869
    150  C         11.1550  -10.2860   36.5850 C.2   145  GLY145      0.2309
    151  O         11.7260   -9.7300   37.5200 O.2   145  GLY145     -0.2863
    152  N         11.6150   -7.3600   34.8940 N.3   147  CYS147     -0.1235
    153  CA        11.5010   -5.9060   34.7290 C.3   147  CYS147      0.1677
    154  C         12.1070   -5.1060   35.8070 C.2   147  CYS147      0.2270
    155  O         11.8500   -5.3320   36.9930 O.2   147  CYS147     -0.2867
    156  CB        10.0360   -5.5120   34.5390 C.3   147  CYS147      0.0956
    157  SG         9.6230   -6.1400   32.8450 S.3   147  CYS147     -0.0801
    158  N         15.4170   -3.1880   31.9010 N.3   161  HIS161     -0.1226
    159  CA        14.5040   -4.0990   31.1910 C.3   161  HIS161      0.1752
    160  C         13.0160   -3.8020   31.4190 C.2   161  HIS161      0.2596
    161  O         12.5190   -3.6180   32.5460 O.2   161  HIS161     -0.2718
    162  CB        14.8070   -5.5490   31.6110 C.3   161  HIS161      0.0759
    163  CG        14.0670   -6.5210   30.8020 C.ar  161  HIS161      0.0818
    164  ND1       14.3370   -6.8380   29.5270 N.ar  161  HIS161     -0.2268
    165  CD2       13.0030   -7.3170   31.1790 C.ar  161  HIS161      0.1154
    166  CE1       13.5000   -7.8100   29.1130 C.ar  161  HIS161      0.1986
    167  NE2       12.6790   -8.0960   30.1320 N.ar  161  HIS161     -0.2212
    168  N         12.2250   -3.8360   30.3490 N.am  162  VAL162     -0.1965
    169  CA        10.7760   -3.5550   30.4230 C.3   162  VAL162      0.1730
    170  C          9.8580   -4.5260   29.6840 C.2   162  VAL162      0.2656
    171  O          8.6520   -4.6230   29.9400 O.2   162  VAL162     -0.2711
    172  CB        10.4740   -2.1020   29.9050 C.3   162  VAL162      0.0290
    173  CG1       11.1580   -1.0920   30.8140 C.3   162  VAL162      0.0023
    174  CG2       10.9890   -1.8620   28.4740 C.3   162  VAL162      0.0023
    175  N         10.3530   -5.3130   28.7580 N.am  163  GLY163     -0.1716
    176  CA         9.4830   -6.2420   28.0530 C.2   163  GLY163      0.1480
    177  C         10.1620   -7.2800   27.1980 C.2   163  GLY163      0.2821
    178  O         11.3740   -7.3080   26.9700 O.2   163  GLY163     -0.2669
    179  N          9.3710   -8.1560   26.6520 N.am  164  GLY164     -0.1905
    180  CA         9.9690   -9.2080   25.8120 C.3   164  GLY164      0.2017
    181  C          8.9050  -10.1200   25.2610 C.2   164  GLY164      0.2639
    182  O          7.7320   -9.9940   25.6400 O.2   164  GLY164     -0.2714
    183  N          9.2670  -11.0380   24.3780 N.am  165  ASN165     -0.1958
    184  CA         8.2760  -11.9530   23.7850 C.3   165  ASN165      0.1819
    185  C          8.7110  -13.4070   23.7310 C.2   165  ASN165      0.2621
    186  O          8.2620  -14.2220   22.9320 O.2   165  ASN165     -0.2715
    187  CB         7.9510  -11.4680   22.3840 C.3   165  ASN165      0.1195
    188  CG         9.2380  -11.3190   21.6150 C.2   165  ASN165      0.2630
    189  OD1       10.2090  -12.0420   21.7790 O.2   165  ASN165     -0.2716
    190  ND2        9.2640  -10.4180   20.6770 N.am  165  ASN165     -0.0877
    191  N          9.5710  -13.7920   24.6340 N.am  166  GLY166     -0.1954
    192  CA        10.0340  -15.1910   24.6660 C.3   166  GLY166      0.1869
    193  C         11.2290  -15.3470   23.7970 C.2   166  GLY166      0.2309
    194  O         11.9810  -16.3010   23.9000 O.2   166  GLY166     -0.2863
    195  N         13.7300   -6.2530   25.6460 N.3   170  PHE170     -0.1241
    196  CA        13.8000   -4.8040   25.3700 C.3   170  PHE170      0.1605
    197  C         14.0280   -3.9810   26.6550 C.2   170  PHE170      0.2264
    198  O         13.4060   -4.2130   27.6940 O.2   170  PHE170     -0.2867
    199  CB        12.4560   -4.3700   24.7180 C.3   170  PHE170      0.0534
    200  CG        12.2480   -4.9990   23.4190 C.ar  170  PHE170     -0.0203
    201  CD1       12.7270   -4.3820   22.2640 C.ar  170  PHE170     -0.0042
    202  CD2       11.6510   -6.2600   23.3230 C.ar  170  PHE170     -0.0042
    203  CE1       12.6090   -5.0420   21.0370 C.ar  170  PHE170     -0.0003
    204  CE2       11.5510   -6.9020   22.0800 C.ar  170  PHE170     -0.0003
    205  CZ        12.0340   -6.2880   20.9330 C.ar  170  PHE170     -0.0000
@<TRIPOS>BOND
     1    80    79    1
     2    77    79   ar
     3    77    75   ar
     4    79    78   ar
     5    72    71    2
     6    75    74   ar
     7    78    76   ar
     8    71    70    1
     9    74    76   ar
    10    74    73    1
    11    96    94    1
    12    70    73    1
    13    70    69    1
    14    95    94    1
    15    94    93    1
    16    93    90    1
    17    87    85    1
    18    82    81    1
    19    82    83    1
    20    82    85    1
    21    89    83   am
    22    89    90    1
    23    83    84    2
    24    85    86    1
    25   190   188   am
    26    90    91    1
    27   205   203   ar
    28   205   204   ar
    29   203   201   ar
    30   188   189    2
    31   188   187    1
    32    92    91    2
    33   122   121    2
    34    86    88    1
    35    91    97   am
    36   204   202   ar
    37   201   200   ar
    38   187   184    1
    39   119   120    1
    40   121   120    1
    41   186   185    2
    42    97    98    1
    43   113   114    2
    44   113   112    1
    45   202   200   ar
    46   200   199    1
    47   120   123    1
    48   185   184    1
    49   185   191   am
    50   111   112    1
    51   184   183    1
    52   193   194    2
    53   193   192    1
    54   112   115    1
    55   183   181   am
    56    98    99    1
    57    98   101    1
    58   123   124    1
    59   123   125    1
    60   107   106    1
    61   107   108    2
    62   191   192    1
    63   199   196    1
    64   105    99   am
    65   105   106    1
    66    99   100    2
    67   106   109    1
    68   181   182    2
    69   181   180    1
    70   196   195    1
    71   196   197    1
    72   103   102    1
    73    43    44    1
    74    46    45    2
    75   115   116    1
    76   101   102    1
    77   180   179    1
    78   117   116    2
    79   116   118   am
    80   102   104    1
    81    45    44    1
    82   179   177   am
    83   197   198    2
    84    44    47    1
    85   109   110    1
    86   178   177    2
    87   177   176    1
    88    47    48    1
    89   126   127    1
    90   176   175    2
    91   131   130    1
    92    48    49    1
    93   174   172    1
    94   175   170    1
    95   129   128    2
    96   132   130    1
    97    52    53    1
    98    49    50    1
    99   166   164   ar
   100   166   167   ar
   101   130   127    1
   102   127   128    1
   103    56    57    1
   104    56    53    1
   105   164   163   ar
   106   128   133   am
   107   170   171    2
   108   170   169    1
   109    57    58    1
   110   172   169    1
   111   172   173    1
   112    53    54    1
   113    60    58   ar
   114    50    51    1
   115   167   165   ar
   116   168   169    1
   117   168   160   am
   118    58    59   ar
   119   141   140    1
   120   163   165   ar
   121   163   162    1
   122   133   134    1
   123   159   160    1
   124   159   162    1
   125   159   158    1
   126    54    55    2
   127   160   161    2
   128   134   135    1
   129   134   137    1
   130   138   137    1
   131   138   139    1
   132   140   139    1
   133   135   136    2
   134   135   142   am
   135   142   143    1
   136    39    41   ar
   137    39    38   ar
   138   157   156    1
   139    41    42   ar
   140    37    38    1
   141    37    34    1
   142    38    40   ar
   143   143   146    1
   144   143   144    1
   145   146   147    1
   146    33    34    1
   147    42    40   ar
   148    34    35    1
   149   156   153    1
   150   153   152    1
   151   153   154    1
   152   144   145    2
   153   144   148   am
   154   148   149    1
   155    35    36    2
   156   154   155    2
   157   150   149    1
   158   150   151    2
   159     8     6   am
   160    30    28   ar
   161    30    32   ar
   162    28    27   ar
   163    32    31   ar
   164     6     5    1
   165     6     7    2
   166     5     2    1
   167    27    26    1
   168    27    29   ar
   169    31    29   ar
   170     4     3    2
   171    26    23    1
   172    68    66   am
   173     2     3    1
   174     2     1    1
   175    23    24    1
   176    23    22    1
   177    65    66    1
   178    65    62    1
   179     3     9   am
   180    16    15    2
   181    66    67    2
   182    24    25    2
   183    64    63    2
   184    15    22   am
   185    15    14    1
   186    63    62    1
   187     9    10    1
   188    62    61    1
   189    10    11    1
   190    13    11   am
   191    13    14    1
   192    11    12    2
   193    14    17    1
   194    17    18    1
   195    18    19    1
   196    19    20    1
   197    21    20    1
