@<TRIPOS>MOLECULE
tmp/1cr1A00.pdb
 159 151 0 0 0
SMALL
GASTEIGER

@<TRIPOS>ATOM
      1  N         -5.6170   21.6970   40.0680 N.3    43  GLY43      -0.1210
      2  CA        -6.9790   21.1710   40.0070 C.3    43  GLY43       0.1956
      3  C         -8.0160   22.3030   40.1540 C.2    43  GLY43       0.2613
      4  O         -7.7330   23.3610   40.7000 O.2    43  GLY43      -0.2717
      5  N         -9.2290   22.0470   39.6740 N.am   44  SER44      -0.1938
      6  CA       -10.3030   23.0310   39.7760 C.3    44  SER44       0.2055
      7  C        -10.5510   23.3690   41.2580 C.2    44  SER44       0.2644
      8  O        -10.5630   22.4870   42.1140 O.2    44  SER44      -0.2714
      9  CB       -11.5880   22.4590   39.1500 C.3    44  SER44       0.2130
     10  OG       -12.6730   23.3540   39.3370 O.3    44  SER44      -0.2179
     11  N        -10.7390   24.6530   41.5610 N.am   45  GLY45      -0.1939
     12  CA       -10.9910   25.1270   42.9330 C.3    45  GLY45       0.2014
     13  C         -9.7600   25.0340   43.8520 C.2    45  GLY45       0.2639
     14  O         -9.8750   25.2180   45.0630 O.2    45  GLY45      -0.2714
     15  N         -8.5960   24.7550   43.2650 N.am   46  MET46      -0.1963
     16  CA        -7.3410   24.6260   44.0250 C.3    46  MET46       0.1736
     17  C         -6.6790   25.9850   44.3390 C.2    46  MET46       0.2617
     18  O         -5.6970   26.0410   45.0730 O.2    46  MET46      -0.2715
     19  CB        -6.3620   23.6550   43.3280 C.3    46  MET46       0.0427
     20  CG        -6.1730   22.3520   44.1500 C.3    46  MET46       0.0599
     21  SD        -7.7500   21.4610   44.3540 S.3    46  MET46      -0.1393
     22  CE        -8.1880   22.1160   45.9800 C.3    46  MET46       0.0692
     23  N         -7.2480   27.1040   43.8270 N.am   47  GLY47      -0.1940
     24  CA        -6.7300   28.4640   44.1330 C.3    47  GLY47       0.2014
     25  C         -5.9440   29.1490   42.9950 C.2    47  GLY47       0.2639
     26  O         -5.1870   30.0780   43.2400 O.2    47  GLY47      -0.2714
     27  N         -6.1250   28.6990   41.7670 N.am   48  LYS48      -0.1963
     28  CA        -5.4060   29.2870   40.6380 C.3    48  LYS48       0.1728
     29  C         -5.6700   30.7930   40.4870 C.2    48  LYS48       0.2617
     30  O         -4.7400   31.5960   40.4770 O.2    48  LYS48      -0.2715
     31  CB        -5.7580   28.5730   39.3350 C.3    48  LYS48       0.0311
     32  CG        -4.4610   28.1490   38.6450 C.3    48  LYS48       0.0038
     33  CD        -4.4960   26.6660   38.2230 C.3    48  LYS48       0.0206
     34  CE        -5.7160   25.9320   38.8180 C.3    48  LYS48       0.1093
     35  NZ        -6.8960   26.5770   38.1790 N.3    48  LYS48      -0.1314
     36  N         -6.9450   31.1580   40.3400 N.am   49  SER49      -0.1936
     37  CA        -7.3530   32.5570   40.1420 C.3    49  SER49       0.2055
     38  C         -6.9450   33.4580   41.2760 C.2    49  SER49       0.2643
     39  O         -6.4550   34.5530   41.0590 O.2    49  SER49      -0.2714
     40  CB        -8.8570   32.6720   39.9430 C.3    49  SER49       0.2130
     41  OG        -9.1930   31.9270   38.7970 O.3    49  SER49      -0.2179
     42  N         -7.1580   32.9940   42.4990 N.am   50  THR50      -0.1950
     43  CA        -6.7990   33.7930   43.6530 C.3    50  THR50       0.1897
     44  C         -5.3320   34.1880   43.5460 C.2    50  THR50       0.2313
     45  O         -4.9760   35.3590   43.5870 O.2    50  THR50      -0.2863
     46  CB        -7.0320   33.0020   44.9480 C.3    50  THR50       0.1794
     47  OG1       -8.4400   32.8070   45.1270 O.3    50  THR50      -0.2208
     48  CG2       -6.4940   33.7900   46.1330 C.3    50  THR50       0.0378
     49  N        -13.9500   39.3360   51.9470 N.3    91  ARG91      -0.1245
     50  CA       -14.5690   38.4750   50.9360 C.3    91  ARG91       0.1563
     51  C        -16.0220   38.8750   50.6710 C.2    91  ARG91       0.2260
     52  O        -16.9590   38.3920   51.3180 O.2    91  ARG91      -0.2867
     53  CB       -14.5250   37.0110   51.3700 C.3    91  ARG91       0.0307
     54  CG       -13.0670   36.5850   51.5160 C.3    91  ARG91       0.0489
     55  CD       -13.0030   35.0950   51.8500 C.3    91  ARG91       0.2205
     56  NE       -13.6050   34.3080   50.7640 N.pl3  91  ARG91      -0.0865
     57  CZ       -13.7570   32.9890   50.8390 C.cat  91  ARG91       0.5346
     58  NH1      -13.4570   32.3410   51.9460 N.pl3  91  ARG91       0.1354
     59  NH2      -14.2020   32.3330   49.8180 N.pl3  91  ARG91       0.1354
     60  N        -18.8440   36.2900   50.1020 N.3    94  GLN94      -0.1245
     61  CA       -19.2800   35.4410   51.2140 C.3    94  GLN94       0.1566
     62  C        -20.1820   36.1480   52.2030 C.2    94  GLN94       0.2260
     63  O        -20.7410   35.5180   53.1050 O.2    94  GLN94      -0.2867
     64  CB       -18.0580   34.9070   51.9790 C.3    94  GLN94       0.0367
     65  CG       -16.9300   34.5780   50.9890 C.3    94  GLN94       0.0905
     66  CD       -17.3960   33.4740   50.0530 C.2    94  GLN94       0.2608
     67  OE1      -17.7960   32.4070   50.5150 O.2    94  GLN94      -0.2717
     68  NE2      -17.4050   33.6640   48.7690 N.am   94  GLN94      -0.0878
     69  N         -7.5850   34.1970   31.6900 N.3   154  ASP154     -0.1225
     70  CA        -8.3110   33.3410   32.6070 C.3   154  ASP154      0.1805
     71  C         -9.6570   32.9130   32.0140 C.2   154  ASP154      0.2597
     72  O        -10.5480   33.7240   31.8720 O.2   154  ASP154     -0.2718
     73  CB        -8.5510   34.1990   33.8680 C.3   154  ASP154      0.1424
     74  CG        -8.8670   33.3620   35.1100 C.2   154  ASP154      0.3668
     75  OD1       -8.8270   33.9290   36.1870 O.co2 154  ASP154     -0.2456
     76  OD2       -9.1250   32.1840   34.9720 O.co2 154  ASP154     -0.2456
     77  N         -9.8250   31.6460   31.6380 N.am  155  HIS155     -0.1975
     78  CA        -8.8100   30.6130   31.7600 C.3   155  HIS155      0.1656
     79  C         -8.8850   29.6830   30.5460 C.2   155  HIS155      0.2291
     80  O         -9.5930   29.9290   29.5590 O.2   155  HIS155     -0.2864
     81  CB        -9.0090   29.7870   33.0460 C.3   155  HIS155      0.0771
     82  CG       -10.2940   29.0090   32.9860 C.ar  155  HIS155      0.0820
     83  ND1      -11.3820   29.3100   33.7840 N.ar  155  HIS155     -0.2267
     84  CD2      -10.6700   27.9220   32.2410 C.ar  155  HIS155      0.1154
     85  CE1      -12.3500   28.4210   33.5110 C.ar  155  HIS155      0.1986
     86  NE2      -11.9660   27.5510   32.5760 N.ar  155  HIS155     -0.2212
     87  N         -3.9200   30.8650   32.8250 N.3   183  ILE183     -0.1245
     88  CA        -4.4380   29.9320   33.8080 C.3   183  ILE183      0.1561
     89  C         -5.0590   28.7380   33.0760 C.2   183  ILE183      0.2260
     90  O         -5.9510   28.9050   32.2380 O.2   183  ILE183     -0.2867
     91  CB        -5.5120   30.6270   34.6480 C.3   183  ILE183      0.0252
     92  CG1       -4.8360   31.6450   35.5790 C.3   183  ILE183      0.0019
     93  CG2       -6.2780   29.5840   35.4750 C.3   183  ILE183      0.0019
     94  CD1       -5.7850   32.8190   35.8000 C.3   183  ILE183      0.0001
     95  N         -6.7090   24.6310   33.2700 N.3   185  HIS185     -0.1241
     96  CA        -7.2820   23.6050   34.1350 C.3   185  HIS185      0.1621
     97  C         -6.7190   22.2270   33.8520 C.2   185  HIS185      0.2264
     98  O         -6.6920   21.7640   32.7070 O.2   185  HIS185     -0.2867
     99  CB        -8.8150   23.5910   34.1410 C.3   185  HIS185      0.0745
    100  CG        -9.2370   24.6340   35.1170 C.ar  185  HIS185      0.0817
    101  ND1       -8.3980   25.0640   36.1270 N.ar  185  HIS185     -0.2268
    102  CD2      -10.3900   25.3500   35.2550 C.ar  185  HIS185      0.1154
    103  CE1       -9.0580   26.0020   36.8220 C.ar  185  HIS185      0.1986
    104  NE2      -10.2760   26.2120   36.3320 N.ar  185  HIS185     -0.2212
    105  N         -2.9110   20.8950   46.8300 N.3   208  ARG208     -0.1245
    106  CA        -3.5780   20.9930   48.1130 C.3   208  ARG208      0.1563
    107  C         -4.1670   19.6900   48.7050 C.2   208  ARG208      0.2260
    108  O         -5.0670   19.0830   48.1660 O.2   208  ARG208     -0.2867
    109  CB        -4.6560   22.0980   48.0250 C.3   208  ARG208      0.0307
    110  CG        -5.4900   22.2060   49.3170 C.3   208  ARG208      0.0489
    111  CD        -6.0750   23.6310   49.4580 C.3   208  ARG208      0.2205
    112  NE        -6.9510   23.9620   48.3150 N.pl3 208  ARG208     -0.0865
    113  CZ        -8.1300   24.5800   48.4780 C.cat 208  ARG208      0.5346
    114  NH1       -8.6540   24.7200   49.6730 N.pl3 208  ARG208      0.1354
    115  NH2       -8.7660   25.0420   47.4530 N.pl3 208  ARG208      0.1354
    116  N         -3.5480   24.7500   53.3600 N.3   211  LEU211     -0.1231
    117  CA        -2.1260   24.8840   52.9610 C.3   211  LEU211      0.1693
    118  C         -1.9310   24.3890   51.5260 C.2   211  LEU211      0.2591
    119  O         -2.3250   23.2810   51.1630 O.2   211  LEU211     -0.2718
    120  CB        -1.3640   23.9900   53.9260 C.3   211  LEU211      0.0284
    121  CG         0.0750   24.4880   54.0070 C.3   211  LEU211      0.0019
    122  CD1        0.1260   25.7290   54.8900 C.3   211  LEU211      0.0001
    123  CD2        0.9600   23.3990   54.6070 C.3   211  LEU211      0.0001
    124  N         -1.3380   25.2520   50.7140 N.am  212  VAL212     -0.1980
    125  CA        -1.1060   24.9520   49.3110 C.3   212  VAL212      0.1595
    126  C          0.3740   24.8900   48.9780 C.2   212  VAL212      0.2287
    127  O          1.1400   25.8140   49.2670 O.2   212  VAL212     -0.2864
    128  CB        -1.7490   26.0500   48.4590 C.3   212  VAL212      0.0276
    129  CG1       -1.3570   27.4100   49.0330 C.3   212  VAL212      0.0022
    130  CG2       -1.2660   25.9650   47.0110 C.3   212  VAL212      0.0022
    131  N         -3.9610   29.7530   52.7540 N.3   233  TYR233     -0.1241
    132  CA        -5.1240   30.5500   52.3690 C.3   233  TYR233      0.1605
    133  C         -5.8730   31.0820   53.5920 C.2   233  TYR233      0.2264
    134  O         -6.2510   30.3270   54.4950 O.2   233  TYR233     -0.2867
    135  CB        -6.0940   29.7090   51.5340 C.3   233  TYR233      0.0534
    136  CG        -7.2370   30.5540   51.0140 C.ar  233  TYR233     -0.0201
    137  CD1       -8.4810   30.5080   51.6460 C.ar  233  TYR233     -0.0009
    138  CD2       -7.0630   31.3380   49.8680 C.ar  233  TYR233     -0.0009
    139  CE1       -9.5510   31.2500   51.1340 C.ar  233  TYR233      0.0417
    140  CE2       -8.1290   32.0870   49.3650 C.ar  233  TYR233      0.0417
    141  CZ        -9.3730   32.0370   49.9920 C.ar  233  TYR233      0.1957
    142  OH       -10.4250   32.7420   49.4680 O.3   233  TYR233     -0.2866
    143  N         -9.1040   32.1960   54.9480 N.3   235  LYS235     -0.1245
    144  CA       -10.5330   32.1250   54.6380 C.3   235  LYS235      0.1561
    145  C        -11.3060   33.3940   54.9810 C.2   235  LYS235      0.2260
    146  O        -12.4440   33.5650   54.5470 O.2   235  LYS235     -0.2867
    147  CB       -11.2040   30.9000   55.2560 C.3   235  LYS235      0.0271
    148  CG       -11.0020   30.9050   56.7640 C.3   235  LYS235      0.0035
    149  CD       -11.7330   29.7060   57.3630 C.3   235  LYS235      0.0206
    150  CE       -11.0090   28.4130   56.9870 C.3   235  LYS235      0.1093
    151  NZ       -11.2570   27.5370   58.1670 N.3   235  LYS235     -0.1314
    152  N         -3.8150   34.5010   49.8730 N.3   240  LEU240     -0.1245
    153  CA        -2.9510   33.3470   50.0610 C.3   240  LEU240      0.1561
    154  C         -1.7410   33.8900   50.7920 C.2   240  LEU240      0.2260
    155  O         -1.1180   34.8460   50.3240 O.2   240  LEU240     -0.2867
    156  CB        -2.4940   32.7390   48.7170 C.3   240  LEU240      0.0270
    157  CG        -3.5340   31.7250   48.2220 C.3   240  LEU240      0.0019
    158  CD1       -3.2610   31.3980   46.7560 C.3   240  LEU240      0.0001
    159  CD2       -3.4300   30.4440   49.0430 C.3   240  LEU240      0.0001
@<TRIPOS>BOND
     1    80    79    2
     2    79    78    1
     3    77    78    1
     4    77    71   am
     5    69    70    1
     6    78    81    1
     7    72    71    2
     8    71    70    1
     9    90    89    2
    10    84    86   ar
    11    84    82   ar
    12    86    85   ar
    13    70    73    1
    14    98    97    2
    15    87    88    1
    16    82    81    1
    17    82    83   ar
    18    89    88    1
    19    95    96    1
    20    85    83   ar
    21    88    91    1
    22    97    96    1
    23    73    74    1
    24    96    99    1
    25    99   100    1
    26    91    93    1
    27    91    92    1
    28    76    74   ar
    29    74    75   ar
    30   100   102   ar
    31   100   101   ar
    32   102   104   ar
    33    92    94    1
    34   101   103   ar
    35   104   103   ar
    36    35    34    1
    37    33    32    1
    38    33    34    1
    39    32    31    1
    40    41    40    1
    41     9    10    1
    42     9     6    1
    43    31    28    1
    44     5     6    1
    45     5     3   am
    46     6     7    1
    47    40    37    1
    48     2     1    1
    49     2     3    1
    50    37    36    1
    51    37    38    1
    52     3     4    2
    53    36    29   am
    54    30    29    2
    55    29    28    1
    56    28    27    1
    57    39    38    2
    58     7    11   am
    59     7     8    2
    60    38    42   am
    61    11    12    1
    62    27    25   am
    63    42    43    1
    64    12    13    1
    65    25    26    2
    66    25    24    1
    67    15    13   am
    68    15    16    1
    69    19    16    1
    70    19    20    1
    71    44    45    2
    72    44    43    1
    73    43    46    1
    74    23    24    1
    75    23    17   am
    76    13    14    2
    77    16    17    1
    78    20    21    1
    79    17    18    2
    80    21    22    1
    81    46    47    1
    82    46    48    1
    83   158   157    1
    84   105   106    1
    85   130   128    1
    86   115   113    1
    87   109   106    1
    88   109   110    1
    89   106   107    1
    90   108   107    2
    91   157   156    1
    92   157   159    1
    93   112   113    2
    94   112   111    1
    95   128   129    1
    96   128   125    1
    97   113   114    1
    98   156   153    1
    99    68    66   am
   100   126   127    2
   101   126   125    1
   102   125   124    1
   103   110   111    1
   104   140   138   ar
   105   140   141   ar
   106   142   141    1
   107    59    57    1
   108   138   136   ar
   109   152   153    1
   110   141   139   ar
   111    66    67    2
   112    66    65    1
   113   153   154    1
   114    60    61    1
   115   155   154    2
   116    51    50    1
   117    51    52    2
   118   124   118   am
   119    56    57    2
   120    56    55    1
   121    57    58    1
   122    50    53    1
   123    50    49    1
   124    65    64    1
   125   136   135    1
   126   136   137   ar
   127   139   137   ar
   128   119   118    2
   129    61    64    1
   130    61    62    1
   131    53    54    1
   132    54    55    1
   133   118   117    1
   134   135   132    1
   135    62    63    2
   136   132   131    1
   137   132   133    1
   138   117   116    1
   139   117   120    1
   140   133   134    2
   141   120   121    1
   142   121   123    1
   143   121   122    1
   144   146   145    2
   145   144   143    1
   146   144   145    1
   147   144   147    1
   148   147   148    1
   149   148   149    1
   150   150   149    1
   151   150   151    1
