@<TRIPOS>MOLECULE
tmp/1cr2A00.pdb
 166 157 0 0 0
SMALL
GASTEIGER

@<TRIPOS>ATOM
      1  N         -9.3540   21.6390   39.5470 N.3    44  SER44      -0.1202
      2  CA       -10.4060   22.6520   39.6950 C.3    44  SER44       0.2020
      3  C        -10.6050   23.0310   41.1740 C.2    44  SER44       0.2619
      4  O        -10.4350   22.2060   42.0720 O.2    44  SER44      -0.2717
      5  CB       -11.7040   22.0590   39.1670 C.3    44  SER44       0.2103
      6  OG       -12.7640   22.8680   39.2850 O.3    44  SER44      -0.2182
      7  N        -10.9670   24.2920   41.4310 N.am   45  GLY45      -0.1942
      8  CA       -11.1880   24.7470   42.8020 C.3    45  GLY45       0.2014
      9  C         -9.9290   24.6800   43.7000 C.2    45  GLY45       0.2639
     10  O        -10.0030   25.0170   44.8830 O.2    45  GLY45      -0.2714
     11  N         -8.8110   24.2740   43.1390 N.am   46  MET46      -0.1963
     12  CA        -7.5750   24.1890   43.9040 C.3    46  MET46       0.1736
     13  C         -6.9130   25.5750   44.2190 C.2    46  MET46       0.2617
     14  O         -6.0250   25.6570   45.0810 O.2    46  MET46      -0.2715
     15  CB        -6.5910   23.1780   43.2900 C.3    46  MET46       0.0427
     16  CG        -6.4790   21.8980   44.1540 C.3    46  MET46       0.0599
     17  SD        -8.0470   20.9620   44.1880 S.3    46  MET46      -0.1393
     18  CE        -8.6170   21.5010   45.8080 C.3    46  MET46       0.0692
     19  N         -7.3400   26.6810   43.5760 N.am   47  GLY47      -0.1940
     20  CA        -6.7560   27.9930   43.9280 C.3    47  GLY47       0.2014
     21  C         -5.9330   28.7520   42.8580 C.2    47  GLY47       0.2639
     22  O         -5.2950   29.7530   43.1890 O.2    47  GLY47      -0.2714
     23  N         -5.9880   28.3230   41.6150 N.am   48  LYS48      -0.1963
     24  CA        -5.2640   29.0050   40.5250 C.3    48  LYS48       0.1728
     25  C         -5.5890   30.5260   40.4500 C.2    48  LYS48       0.2617
     26  O         -4.7200   31.3940   40.5860 O.2    48  LYS48      -0.2715
     27  CB        -5.6370   28.3800   39.1820 C.3    48  LYS48       0.0311
     28  CG        -4.9390   27.0390   39.0100 C.3    48  LYS48       0.0038
     29  CD        -5.9760   25.9540   38.7580 C.3    48  LYS48       0.0206
     30  CE        -6.7510   26.2510   37.4910 C.3    48  LYS48       0.1093
     31  NZ        -8.0400   25.6000   37.8210 N.3    48  LYS48      -0.1314
     32  N         -6.8530   30.8070   40.2300 N.am   49  SER49      -0.1936
     33  CA        -7.3900   32.1640   40.1110 C.3    49  SER49       0.2055
     34  C         -6.9980   33.0930   41.2600 C.2    49  SER49       0.2643
     35  O         -6.5020   34.2020   41.0620 O.2    49  SER49      -0.2714
     36  CB        -8.9010   32.0910   40.0940 C.3    49  SER49       0.2130
     37  OG        -9.3320   31.8410   38.7780 O.3    49  SER49      -0.2179
     38  N         -7.2260   32.6330   42.4540 N.am   50  THR50      -0.1950
     39  CA        -6.8890   33.4120   43.6200 C.3    50  THR50       0.1897
     40  C         -5.4170   33.8230   43.5450 C.2    50  THR50       0.2313
     41  O         -5.0740   35.0110   43.5780 O.2    50  THR50      -0.2863
     42  CB        -7.1240   32.5340   44.8550 C.3    50  THR50       0.1794
     43  OG1       -8.5010   32.3910   45.0990 O.3    50  THR50      -0.2208
     44  CG2       -6.4200   33.0950   46.0840 C.3    50  THR50       0.0378
     45  N        -13.7250   39.0860   51.9100 N.3    91  ARG91      -0.1245
     46  CA       -14.3710   38.2490   50.9160 C.3    91  ARG91       0.1563
     47  C        -15.8160   38.6850   50.6670 C.2    91  ARG91       0.2260
     48  O        -16.7270   38.2290   51.3210 O.2    91  ARG91      -0.2867
     49  CB       -14.3580   36.8130   51.4280 C.3    91  ARG91       0.0307
     50  CG       -12.9100   36.3560   51.5920 C.3    91  ARG91       0.0489
     51  CD       -12.9020   34.9140   52.0570 C.3    91  ARG91       0.2205
     52  NE       -13.3140   34.0450   50.9790 N.pl3  91  ARG91      -0.0865
     53  CZ       -13.4710   32.7410   51.1270 C.cat  91  ARG91       0.5346
     54  NH1      -13.3420   32.1860   52.3000 N.pl3  91  ARG91       0.1354
     55  NH2      -13.7660   32.0060   50.0690 N.pl3  91  ARG91       0.1354
     56  N        -17.9440   37.9940   48.2850 N.3    93  ARG93      -0.1231
     57  CA       -18.8470   36.9130   47.8760 C.3    93  ARG93       0.1694
     58  C        -19.4340   36.1060   49.0560 C.2    93  ARG93       0.2591
     59  O        -20.5360   35.5640   48.9820 O.2    93  ARG93      -0.2718
     60  CB       -18.1200   35.9370   46.9460 C.3    93  ARG93       0.0321
     61  CG       -18.6110   36.0710   45.5060 C.3    93  ARG93       0.0489
     62  CD       -18.7870   34.6740   44.9110 C.3    93  ARG93       0.2205
     63  NE       -17.5180   33.9800   44.7590 N.pl3  93  ARG93      -0.0865
     64  CZ       -17.4430   32.6830   44.5000 C.cat  93  ARG93       0.5346
     65  NH1      -16.2750   32.0770   44.5440 N.pl3  93  ARG93       0.1354
     66  NH2      -18.4930   32.0050   44.1640 N.pl3  93  ARG93       0.1354
     67  N        -18.6770   35.9640   50.0970 N.am   94  GLN94      -0.1979
     68  CA       -19.1000   35.1640   51.2370 C.3    94  GLN94       0.1601
     69  C        -19.9640   35.9110   52.2610 C.2    94  GLN94       0.2287
     70  O        -20.1070   35.4530   53.4130 O.2    94  GLN94      -0.2864
     71  CB       -17.8510   34.6260   51.9410 C.3    94  GLN94       0.0394
     72  CG       -16.8430   34.1430   50.8930 C.3    94  GLN94       0.0908
     73  CD       -17.3970   32.9030   50.1830 C.2    94  GLN94       0.2608
     74  OE1      -17.7750   31.9370   50.8430 O.2    94  GLN94      -0.2717
     75  NE2      -17.4990   32.8780   48.8830 N.am   94  GLN94      -0.0878
     76  N         -7.6440   33.8850   31.8610 N.3   153  ASP153     -0.1225
     77  CA        -8.3170   32.9410   32.7390 C.3   153  ASP153      0.1805
     78  C         -9.6570   32.5210   32.1750 C.2   153  ASP153      0.2597
     79  O        -10.6030   33.3010   32.1930 O.2   153  ASP153     -0.2718
     80  CB        -8.5000   33.7030   34.0590 C.3   153  ASP153      0.1424
     81  CG        -8.8900   32.8120   35.2340 C.2   153  ASP153      0.3668
     82  OD1       -9.1450   31.6480   35.0360 O.co2 153  ASP153     -0.2456
     83  OD2       -8.9230   33.3530   36.3240 O.co2 153  ASP153     -0.2456
     84  N         -9.7850   31.3060   31.6350 N.am  154  HIS154     -0.1975
     85  CA        -8.7130   30.3490   31.5720 C.3   154  HIS154      0.1656
     86  C         -8.8890   29.4080   30.3760 C.2   154  HIS154      0.2291
     87  O         -9.5970   29.7020   29.4280 O.2   154  HIS154     -0.2864
     88  CB        -8.7320   29.5480   32.8670 C.3   154  HIS154      0.0771
     89  CG       -10.0420   28.8230   32.9820 C.ar  154  HIS154      0.0820
     90  ND1      -11.1530   29.3580   33.6260 N.ar  154  HIS154     -0.2267
     91  CD2      -10.4280   27.5870   32.5440 C.ar  154  HIS154      0.1154
     92  CE1      -12.1350   28.4380   33.5670 C.ar  154  HIS154      0.1986
     93  NE2      -11.7430   27.3400   32.9180 N.ar  154  HIS154     -0.2212
     94  N         -3.8450   30.5920   32.8030 N.3   182  ILE182     -0.1245
     95  CA        -4.2980   29.6260   33.7800 C.3   182  ILE182      0.1561
     96  C         -4.9160   28.4990   33.0230 C.2   182  ILE182      0.2260
     97  O         -5.6780   28.6900   32.0950 O.2   182  ILE182     -0.2867
     98  CB        -5.3700   30.2630   34.6250 C.3   182  ILE182      0.0252
     99  CG1       -4.7470   31.4080   35.3950 C.3   182  ILE182      0.0019
    100  CG2       -5.9720   29.2190   35.5750 C.3   182  ILE182      0.0019
    101  CD1       -5.8340   32.1600   36.1460 C.3   182  ILE182      0.0001
    102  N         -6.7250   24.3940   33.2880 N.3   184  HIS184     -0.1241
    103  CA        -7.2330   23.3040   34.1900 C.3   184  HIS184      0.1621
    104  C         -6.5760   21.9410   33.9220 C.2   184  HIS184      0.2264
    105  O         -6.4940   21.5590   32.7750 O.2   184  HIS184     -0.2867
    106  CB        -8.6930   22.9770   33.8950 C.3   184  HIS184      0.0745
    107  CG        -9.5030   23.8570   34.6980 C.ar  184  HIS184      0.0817
    108  ND1       -8.9350   24.5010   35.7430 N.ar  184  HIS184     -0.2268
    109  CD2      -10.7480   24.3630   34.5420 C.ar  184  HIS184      0.1154
    110  CE1       -9.8110   25.3830   36.1720 C.ar  184  HIS184      0.1986
    111  NE2      -10.9400   25.3470   35.4790 N.ar  184  HIS184     -0.2212
    112  N         -2.9080   20.5880   46.8790 N.3   202  ARG202     -0.1245
    113  CA        -3.5100   20.6640   48.2140 C.3   202  ARG202      0.1563
    114  C         -4.1400   19.3440   48.6760 C.2   202  ARG202      0.2260
    115  O         -4.9870   18.7880   47.9810 O.2   202  ARG202     -0.2867
    116  CB        -4.5630   21.7790   48.1930 C.3   202  ARG202      0.0307
    117  CG        -5.2190   21.9460   49.5600 C.3   202  ARG202      0.0489
    118  CD        -6.0170   23.2450   49.5380 C.3   202  ARG202      0.2205
    119  NE        -6.8000   23.3450   48.3260 N.pl3 202  ARG202     -0.0865
    120  CZ        -7.9300   24.0220   48.2620 C.cat 202  ARG202      0.5346
    121  NH1       -8.4690   24.5210   49.3160 N.pl3 202  ARG202      0.1354
    122  NH2       -8.5060   24.1900   47.0970 N.pl3 202  ARG202      0.1354
    123  N         -5.9400   24.3970   53.8630 N.3   204  ASN204     -0.1240
    124  CA        -5.4800   25.6340   53.1540 C.3   204  ASN204      0.1653
    125  C         -3.9400   25.7200   53.0180 C.2   204  ASN204      0.2266
    126  O         -3.4080   26.7610   52.6590 O.2   204  ASN204     -0.2867
    127  CB        -6.0560   26.8370   53.9210 C.3   204  ASN204      0.1155
    128  CG        -7.5340   26.7880   53.9920 C.2   204  ASN204      0.2627
    129  OD1       -8.1910   26.6800   52.9790 O.2   204  ASN204     -0.2716
    130  ND2       -8.0970   26.8630   55.1550 N.am  204  ASN204     -0.0877
    131  N         -1.1530   25.0590   50.7740 N.3   206  VAL206     -0.1245
    132  CA        -0.9440   24.7430   49.3710 C.3   206  VAL206      0.1561
    133  C          0.5220   24.6350   49.0270 C.2   206  VAL206      0.2260
    134  O          1.2890   25.5290   49.3220 O.2   206  VAL206     -0.2867
    135  CB        -1.5890   25.8660   48.5620 C.3   206  VAL206      0.0252
    136  CG1       -1.1060   25.8580   47.1110 C.3   206  VAL206      0.0019
    137  CG2       -3.0950   25.7260   48.6180 C.3   206  VAL206      0.0019
    138  N         -4.0380   29.3880   52.8310 N.3   227  TYR227     -0.1241
    139  CA        -5.1690   30.2400   52.4550 C.3   227  TYR227      0.1605
    140  C         -5.8930   30.7790   53.6820 C.2   227  TYR227      0.2264
    141  O         -6.3680   30.0350   54.5150 O.2   227  TYR227     -0.2867
    142  CB        -6.1610   29.4050   51.6660 C.3   227  TYR227      0.0534
    143  CG        -7.3080   30.2500   51.1690 C.ar  227  TYR227     -0.0201
    144  CD1       -8.5780   30.0900   51.7230 C.ar  227  TYR227     -0.0009
    145  CD2       -7.1060   31.1400   50.1100 C.ar  227  TYR227     -0.0009
    146  CE1       -9.6520   30.8250   51.2080 C.ar  227  TYR227      0.0417
    147  CE2       -8.1760   31.8820   49.6020 C.ar  227  TYR227      0.0417
    148  CZ        -9.4490   31.7230   50.1500 C.ar  227  TYR227      0.1957
    149  OH       -10.5020   32.4300   49.6330 O.3   227  TYR227     -0.2866
    150  N         -9.0240   31.8410   54.9480 N.3   229  LYS229     -0.1245
    151  CA       -10.4450   31.8350   54.6050 C.3   229  LYS229      0.1561
    152  C        -11.2130   33.1290   55.0060 C.2   229  LYS229      0.2260
    153  O        -12.3660   33.3350   54.6270 O.2   229  LYS229     -0.2867
    154  CB       -11.1110   30.6060   55.1870 C.3   229  LYS229      0.0271
    155  CG       -11.2380   30.7710   56.6970 C.3   229  LYS229      0.0035
    156  CD       -11.8400   29.4970   57.2970 C.3   229  LYS229      0.0206
    157  CE       -10.9160   28.3020   57.0090 C.3   229  LYS229      0.1093
    158  NZ       -11.2830   27.2900   58.0520 N.3   229  LYS229     -0.1314
    159  N         -3.7120   34.2500   49.9170 N.3   234  LEU234     -0.1245
    160  CA        -2.8690   33.0910   50.0780 C.3   234  LEU234      0.1561
    161  C         -1.6370   33.6230   50.8190 C.2   234  LEU234      0.2260
    162  O         -1.0130   34.5540   50.3510 O.2   234  LEU234     -0.2867
    163  CB        -2.4330   32.6050   48.6960 C.3   234  LEU234      0.0270
    164  CG        -3.4730   31.6640   48.0840 C.3   234  LEU234      0.0019
    165  CD1       -3.0820   31.3640   46.6310 C.3   234  LEU234      0.0001
    166  CD2       -3.4780   30.3540   48.8650 C.3   234  LEU234      0.0001
@<TRIPOS>BOND
     1    87    86    2
     2    86    85    1
     3    85    84    1
     4    85    88    1
     5    84    78   am
     6    76    77    1
     7    97    96    2
     8    78    79    2
     9    78    77    1
    10    91    93   ar
    11    91    89   ar
    12    77    80    1
    13   105   104    2
    14    94    95    1
    15    88    89    1
    16    93    92   ar
    17    89    90   ar
    18    96    95    1
    19   102   103    1
    20    92    90   ar
    21    95    98    1
    22   106   103    1
    23   106   107    1
    24   104   103    1
    25    80    81    1
    26   109   107   ar
    27   109   111   ar
    28    98    99    1
    29    98   100    1
    30   107   108   ar
    31    82    81   ar
    32    81    83   ar
    33    99   101    1
    34   111   110   ar
    35   108   110   ar
    36    30    31    1
    37    30    29    1
    38    29    28    1
    39    37    36    1
    40    28    27    1
    41     5     6    1
    42     5     2    1
    43    27    24    1
    44     1     2    1
    45     2     3    1
    46    36    33    1
    47    33    32    1
    48    33    34    1
    49    32    25   am
    50    25    24    1
    51    25    26    2
    52    24    23    1
    53    35    34    2
    54     3     7   am
    55     3     4    2
    56    34    38   am
    57     7     8    1
    58    23    21   am
    59    38    39    1
    60     8     9    1
    61    21    22    2
    62    21    20    1
    63    11     9   am
    64    11    12    1
    65    15    12    1
    66    15    16    1
    67    40    41    2
    68    40    39    1
    69    19    20    1
    70    19    13   am
    71    39    42    1
    72     9    10    2
    73    12    13    1
    74    16    17    1
    75    66    64    1
    76    17    18    1
    77    13    14    2
    78    64    65    1
    79    64    63    2
    80    63    62    1
    81    42    43    1
    82    42    44    1
    83    62    61    1
    84    61    60    1
    85   165   164    1
    86   112   113    1
    87    60    57    1
    88   122   120    1
    89   136   135    1
    90    57    56    1
    91    57    58    1
    92   115   114    2
    93   164   163    1
    94   164   166    1
    95   116   113    1
    96   116   117    1
    97   113   114    1
    98   120   119    2
    99   120   121    1
   100   119   118    1
   101   135   137    1
   102   135   132    1
   103   163   160    1
   104    75    73   am
   105    59    58    2
   106   133   134    2
   107   133   132    1
   108    58    67   am
   109   132   131    1
   110   118   117    1
   111   147   145   ar
   112   147   148   ar
   113   149   148    1
   114   159   160    1
   115    55    53    1
   116   160   161    1
   117    67    68    1
   118   145   143   ar
   119   148   146   ar
   120    73    74    2
   121    73    72    1
   122   162   161    2
   123    47    46    1
   124    47    48    2
   125    72    71    1
   126    46    49    1
   127    46    45    1
   128    52    53    2
   129    52    51    1
   130    53    54    1
   131   143   142    1
   132   143   144   ar
   133   146   144   ar
   134    68    71    1
   135    68    69    1
   136    49    50    1
   137    50    51    1
   138   142   139    1
   139    69    70    2
   140   139   138    1
   141   139   140    1
   142   126   125    2
   143   129   128    2
   144   125   124    1
   145   124   123    1
   146   124   127    1
   147   140   141    2
   148   127   128    1
   149   128   130   am
   150   151   150    1
   151   151   152    1
   152   151   154    1
   153   153   152    2
   154   154   155    1
   155   155   156    1
   156   157   156    1
   157   157   158    1
