@<TRIPOS>MOLECULE
tmp/1cr4A00.pdb
 141 133 0 0 0
SMALL
GASTEIGER

@<TRIPOS>ATOM
      1  N         -5.6260   21.6410   40.0290 N.3    43  GLY43      -0.1210
      2  CA        -7.0180   21.1580   39.9340 C.3    43  GLY43       0.1956
      3  C         -8.0310   22.3300   40.0740 C.2    43  GLY43       0.2613
      4  O         -7.7400   23.3410   40.6620 O.2    43  GLY43      -0.2717
      5  N         -9.2350   22.1350   39.5540 N.am   44  SER44      -0.1938
      6  CA       -10.2720   23.1540   39.6640 C.3    44  SER44       0.2055
      7  C        -10.5340   23.4740   41.1490 C.2    44  SER44       0.2644
      8  O        -10.5470   22.5790   41.9840 O.2    44  SER44      -0.2714
      9  CB       -11.5310   22.5600   39.0600 C.3    44  SER44       0.2130
     10  OG       -12.6250   23.4400   39.2050 O.3    44  SER44      -0.2179
     11  N        -10.7410   24.7550   41.4860 N.am   45  GLY45      -0.1939
     12  CA       -11.0000   25.1160   42.8790 C.3    45  GLY45       0.2014
     13  C         -9.7530   25.0270   43.8060 C.2    45  GLY45       0.2639
     14  O         -9.8690   25.2270   45.0150 O.2    45  GLY45      -0.2714
     15  N         -8.6000   24.7470   43.2390 N.am   46  MET46      -0.1963
     16  CA        -7.3710   24.6460   44.0210 C.3    46  MET46       0.1736
     17  C         -6.7290   26.0440   44.3510 C.2    46  MET46       0.2617
     18  O         -5.7200   26.1350   45.0760 O.2    46  MET46      -0.2715
     19  CB        -6.3790   23.6890   43.3260 C.3    46  MET46       0.0427
     20  CG        -6.1320   22.3990   44.1460 C.3    46  MET46       0.0599
     21  SD        -7.6430   21.4100   44.3050 S.3    46  MET46      -0.1393
     22  CE        -8.1720   21.9940   45.9390 C.3    46  MET46       0.0692
     23  N         -7.3100   27.1410   43.8400 N.am   47  GLY47      -0.1940
     24  CA        -6.8050   28.4890   44.1300 C.3    47  GLY47       0.2014
     25  C         -6.0030   29.1820   43.0030 C.2    47  GLY47       0.2639
     26  O         -5.2700   30.1240   43.2600 O.2    47  GLY47      -0.2714
     27  N         -6.1660   28.7480   41.7950 N.am   48  LYS48      -0.1963
     28  CA        -5.4480   29.3600   40.6830 C.3    48  LYS48       0.1728
     29  C         -5.7510   30.8770   40.5020 C.2    48  LYS48       0.2617
     30  O         -4.8680   31.7280   40.5610 O.2    48  LYS48      -0.2715
     31  CB        -5.7750   28.6100   39.4090 C.3    48  LYS48       0.0311
     32  CG        -4.4870   28.1560   38.7160 C.3    48  LYS48       0.0038
     33  CD        -4.5970   26.7060   38.2100 C.3    48  LYS48       0.0206
     34  CE        -5.7660   25.9670   38.8610 C.3    48  LYS48       0.1093
     35  NZ        -6.9860   26.5500   38.2240 N.3    48  LYS48      -0.1314
     36  N         -6.9950   31.1970   40.3000 N.am   49  SER49      -0.1936
     37  CA        -7.4130   32.5750   40.1220 C.3    49  SER49       0.2055
     38  C         -6.9490   33.4820   41.2670 C.2    49  SER49       0.2643
     39  O         -6.3420   34.5200   41.0570 O.2    49  SER49      -0.2714
     40  CB        -8.9170   32.6210   40.0190 C.3    49  SER49       0.2130
     41  OG        -9.3260   31.6860   39.0240 O.3    49  SER49      -0.2179
     42  N         -7.2150   33.0670   42.4670 N.am   50  THR50      -0.1950
     43  CA        -6.8060   33.8290   43.6310 C.3    50  THR50       0.1897
     44  C         -5.3270   34.2100   43.5350 C.2    50  THR50       0.2313
     45  O         -4.9680   35.3790   43.5380 O.2    50  THR50      -0.2863
     46  CB        -7.0380   32.9910   44.8720 C.3    50  THR50       0.1794
     47  OG1       -8.4240   32.7600   45.0270 O.3    50  THR50      -0.2208
     48  CG2       -6.4890   33.6980   46.1070 C.3    50  THR50       0.0378
     49  N        -14.0370   39.3020   51.9860 N.3    91  ARG91      -0.1245
     50  CA       -14.5880   38.4680   50.9430 C.3    91  ARG91       0.1563
     51  C        -16.0190   38.8630   50.6390 C.2    91  ARG91       0.2260
     52  O        -16.9450   38.3500   51.2130 O.2    91  ARG91      -0.2867
     53  CB       -14.5660   37.0450   51.4320 C.3    91  ARG91       0.0307
     54  CG       -13.1200   36.5790   51.4910 C.3    91  ARG91       0.0489
     55  CD       -13.1170   35.1190   51.8860 C.3    91  ARG91       0.2205
     56  NE       -13.6450   34.3290   50.8020 N.pl3  91  ARG91      -0.0865
     57  CZ       -13.7730   33.0180   50.8760 C.cat  91  ARG91       0.5346
     58  NH1      -13.4780   32.3860   51.9670 N.pl3  91  ARG91       0.1354
     59  NH2      -14.2050   32.3510   49.8300 N.pl3  91  ARG91       0.1354
     60  N        -18.8540   36.3060   50.1170 N.3    94  GLN94      -0.1245
     61  CA       -19.2740   35.4710   51.2330 C.3    94  GLN94       0.1566
     62  C        -20.1800   36.1700   52.2550 C.2    94  GLN94       0.2260
     63  O        -20.6830   35.5450   53.1970 O.2    94  GLN94      -0.2867
     64  CB       -18.0290   34.9630   51.9600 C.3    94  GLN94       0.0367
     65  CG       -16.9450   34.6130   50.9390 C.3    94  GLN94       0.0905
     66  CD       -17.4530   33.4870   50.0430 C.2    94  GLN94       0.2608
     67  OE1      -17.7660   32.3940   50.5320 O.2    94  GLN94      -0.2717
     68  NE2      -17.5960   33.6960   48.7710 N.am   94  GLN94      -0.0878
     69  N         -3.9880   30.8790   32.8260 N.3   183  ILE183     -0.1245
     70  CA        -4.4510   29.9090   33.8290 C.3   183  ILE183      0.1561
     71  C         -5.0870   28.7100   33.1060 C.2   183  ILE183      0.2260
     72  O         -6.0140   28.8930   32.3430 O.2   183  ILE183     -0.2867
     73  CB        -5.5080   30.6170   34.6700 C.3   183  ILE183      0.0252
     74  CG1       -4.8500   31.6400   35.5820 C.3   183  ILE183      0.0019
     75  CG2       -6.3050   29.6100   35.4850 C.3   183  ILE183      0.0019
     76  CD1       -5.7780   32.8420   35.7660 C.3   183  ILE183      0.0001
     77  N         -6.7570   24.6350   33.2990 N.3   185  HIS185     -0.1241
     78  CA        -7.3130   23.6300   34.2170 C.3   185  HIS185      0.1621
     79  C         -6.7760   22.2040   33.9580 C.2   185  HIS185      0.2264
     80  O         -6.7630   21.7400   32.8310 O.2   185  HIS185     -0.2867
     81  CB        -8.8290   23.6750   34.1300 C.3   185  HIS185      0.0745
     82  CG        -9.3320   24.7090   35.0920 C.ar  185  HIS185      0.0817
     83  ND1       -8.5770   25.1380   36.1640 N.ar  185  HIS185     -0.2268
     84  CD2      -10.5140   25.4000   35.1710 C.ar  185  HIS185      0.1154
     85  CE1       -9.2940   26.0420   36.8420 C.ar  185  HIS185      0.1986
     86  NE2      -10.4840   26.2390   36.2850 N.ar  185  HIS185     -0.2212
     87  N         -2.9720   20.8140   46.8710 N.3   206  ARG206     -0.1245
     88  CA        -3.6080   20.9470   48.1610 C.3   206  ARG206      0.1563
     89  C         -4.1450   19.6310   48.7570 C.2   206  ARG206      0.2260
     90  O         -4.9690   18.9630   48.1570 O.2   206  ARG206     -0.2867
     91  CB        -4.7300   21.9990   48.0020 C.3   206  ARG206      0.0307
     92  CG        -5.5090   22.1940   49.3000 C.3   206  ARG206      0.0489
     93  CD        -6.0360   23.6280   49.3530 C.3   206  ARG206      0.2205
     94  NE        -7.0610   23.8480   48.3570 N.pl3 206  ARG206     -0.0865
     95  CZ        -8.1540   24.5640   48.5840 C.cat 206  ARG206      0.5346
     96  NH1       -8.6310   24.7100   49.7770 N.pl3 206  ARG206      0.1354
     97  NH2       -8.7660   25.1360   47.5740 N.pl3 206  ARG206      0.1354
     98  N         -3.5550   24.8240   53.3710 N.3   209  LEU209     -0.1231
     99  CA        -2.1180   24.9270   52.9520 C.3   209  LEU209      0.1693
    100  C         -1.9410   24.4210   51.5020 C.2   209  LEU209      0.2591
    101  O         -2.3620   23.3280   51.1370 O.2   209  LEU209     -0.2718
    102  CB        -1.3740   24.0040   53.9120 C.3   209  LEU209      0.0284
    103  CG         0.0630   24.4910   54.0450 C.3   209  LEU209      0.0019
    104  CD1        0.1020   25.6990   54.9740 C.3   209  LEU209      0.0001
    105  CD2        0.9200   23.3780   54.6350 C.3   209  LEU209      0.0001
    106  N         -1.3440   25.2490   50.6910 N.am  210  VAL210     -0.1980
    107  CA        -1.1400   24.9150   49.3020 C.3   210  VAL210      0.1595
    108  C          0.3470   24.8600   48.9880 C.2   210  VAL210      0.2287
    109  O          1.1020   25.7240   49.3870 O.2   210  VAL210     -0.2864
    110  CB        -1.7850   26.0330   48.5070 C.3   210  VAL210      0.0276
    111  CG1       -1.3270   27.3510   49.1080 C.3   210  VAL210      0.0022
    112  CG2       -1.3610   25.9690   47.0410 C.3   210  VAL210      0.0022
    113  N         -4.0010   29.7430   52.7880 N.3   231  TYR231     -0.1241
    114  CA        -5.1590   30.5610   52.4100 C.3   231  TYR231      0.1605
    115  C         -5.9000   31.0940   53.6440 C.2   231  TYR231      0.2264
    116  O         -6.2810   30.3380   54.5070 O.2   231  TYR231     -0.2867
    117  CB        -6.1120   29.6680   51.6260 C.3   231  TYR231      0.0534
    118  CG        -7.2440   30.4660   51.0590 C.ar  231  TYR231     -0.0201
    119  CD1       -8.5020   30.4090   51.6600 C.ar  231  TYR231     -0.0009
    120  CD2       -7.0400   31.2380   49.9190 C.ar  231  TYR231     -0.0009
    121  CE1       -9.5610   31.1410   51.1120 C.ar  231  TYR231      0.0417
    122  CE2       -8.0970   31.9710   49.3750 C.ar  231  TYR231      0.0417
    123  CZ        -9.3540   31.9250   49.9700 C.ar  231  TYR231      0.1957
    124  OH       -10.3910   32.6380   49.4200 O.3   231  TYR231     -0.2866
    125  N         -9.0960   32.1230   54.9890 N.3   233  LYS233     -0.1245
    126  CA       -10.5070   32.1000   54.6700 C.3   233  LYS233      0.1561
    127  C        -11.2640   33.4040   55.0240 C.2   233  LYS233      0.2260
    128  O        -12.3900   33.6070   54.5970 O.2   233  LYS233     -0.2867
    129  CB       -11.1740   30.8850   55.2920 C.3   233  LYS233      0.0271
    130  CG       -10.8750   30.8550   56.7860 C.3   233  LYS233      0.0035
    131  CD       -11.6480   29.7000   57.4230 C.3   233  LYS233      0.0206
    132  CE       -11.0780   28.3600   56.9420 C.3   233  LYS233      0.1093
    133  NZ       -11.0730   27.5090   58.1740 N.3   233  LYS233     -0.1314
    134  N         -3.8000   34.5090   49.8730 N.3   238  LEU238     -0.1245
    135  CA        -2.9430   33.3770   50.1280 C.3   238  LEU238      0.1561
    136  C         -1.7080   33.9460   50.8500 C.2   238  LEU238      0.2260
    137  O         -1.1240   34.8860   50.3670 O.2   238  LEU238     -0.2867
    138  CB        -2.5350   32.7920   48.7850 C.3   238  LEU238      0.0270
    139  CG        -3.6420   31.8780   48.2680 C.3   238  LEU238      0.0019
    140  CD1       -3.4130   31.5760   46.7890 C.3   238  LEU238      0.0001
    141  CD2       -3.6090   30.5750   49.0530 C.3   238  LEU238      0.0001
@<TRIPOS>BOND
     1    72    71    2
     2    69    70    1
     3    80    79    2
     4    71    70    1
     5    77    78    1
     6    70    73    1
     7    79    78    1
     8    81    78    1
     9    81    82    1
    10    73    75    1
    11    73    74    1
    12    82    84   ar
    13    82    83   ar
    14    84    86   ar
    15    74    76    1
    16    83    85   ar
    17    86    85   ar
    18    33    32    1
    19    33    34    1
    20    35    34    1
    21    32    31    1
    22    41    40    1
    23     9    10    1
    24     9     6    1
    25    31    28    1
    26     5     6    1
    27     5     3   am
    28     6     7    1
    29     2     1    1
    30     2     3    1
    31    40    37    1
    32     3     4    2
    33    37    36    1
    34    37    38    1
    35    36    29   am
    36    29    30    2
    37    29    28    1
    38    28    27    1
    39    39    38    2
    40     7    11   am
    41     7     8    2
    42    38    42   am
    43    11    12    1
    44    27    25   am
    45    42    43    1
    46    12    13    1
    47    25    26    2
    48    25    24    1
    49    15    13   am
    50    15    16    1
    51    19    16    1
    52    19    20    1
    53    44    45    2
    54    44    43    1
    55    43    46    1
    56    13    14    2
    57    23    24    1
    58    23    17   am
    59    16    17    1
    60    20    21    1
    61    21    22    1
    62    17    18    2
    63    46    47    1
    64    46    48    1
    65   140   139    1
    66    87    88    1
    67   112   110    1
    68    97    95    1
    69    91    88    1
    70    91    92    1
    71    90    89    2
    72    88    89    1
    73   139   138    1
    74   139   141    1
    75    94    95    2
    76    94    93    1
    77   110   111    1
    78   110   107    1
    79    95    96    1
    80    68    66   am
    81   138   135    1
    82   108   107    1
    83   108   109    2
    84    92    93    1
    85   107   106    1
    86   122   120   ar
    87   122   123   ar
    88   124   123    1
    89    59    57    1
    90   134   135    1
    91   120   118   ar
    92   123   121   ar
    93    66    67    2
    94    66    65    1
    95    60    61    1
    96   135   136    1
    97   137   136    2
    98    51    50    1
    99    51    52    2
   100   106   100   am
   101    56    57    2
   102    56    55    1
   103    57    58    1
   104    65    64    1
   105    50    53    1
   106    50    49    1
   107   118   117    1
   108   118   119   ar
   109   121   119   ar
   110   101   100    2
   111    61    64    1
   112    61    62    1
   113    53    54    1
   114    54    55    1
   115   100    99    1
   116   117   114    1
   117    62    63    2
   118   114   113    1
   119   114   115    1
   120    99    98    1
   121    99   102    1
   122   115   116    2
   123   102   103    1
   124   103   105    1
   125   103   104    1
   126   128   127    2
   127   126   125    1
   128   126   127    1
   129   126   129    1
   130   129   130    1
   131   130   131    1
   132   132   131    1
   133   132   133    1
