@<TRIPOS>MOLECULE
tmp/1cr5A00.pdb
 78 74 0 0 0
SMALL
GASTEIGER

@<TRIPOS>ATOM
      1  N          7.9780   -9.4930   -1.1530 N.3     7  SER7       -0.1202
      2  CA         7.0100  -10.2680   -1.9180 C.3     7  SER7        0.2020
      3  C          7.5080  -10.3000   -3.3540 C.2     7  SER7        0.2619
      4  O          8.2790   -9.4260   -3.7660 O.2     7  SER7       -0.2717
      5  CB         5.6330   -9.6190   -1.8750 C.3     7  SER7        0.2103
      6  OG         5.6440   -8.3790   -2.5500 O.3     7  SER7       -0.2182
      7  N          7.0780  -11.3120   -4.1040 N.am    8  ASN8       -0.1960
      8  CA         7.4780  -11.4550   -5.4950 C.3     8  ASN8        0.1819
      9  C          6.7070  -10.4410   -6.3370 C.2     8  ASN8        0.2621
     10  O          5.5410  -10.1710   -6.0730 O.2     8  ASN8       -0.2715
     11  CB         7.1870  -12.8780   -5.9790 C.3     8  ASN8        0.1195
     12  CG         7.6960  -13.1340   -7.3850 C.2     8  ASN8        0.2630
     13  OD1        8.8420  -12.8190   -7.7060 O.2     8  ASN8       -0.2716
     14  ND2        6.8490  -13.7190   -8.2270 N.am    8  ASN8       -0.0877
     15  N          7.3690   -9.8760   -7.3430 N.am    9  CYS9       -0.1954
     16  CA         6.7510   -8.8810   -8.2170 C.3     9  CYS9        0.1828
     17  C          7.2030   -9.2290   -9.6300 C.2     9  CYS9        0.2467
     18  O          8.1360   -8.6290  -10.1710 O.2     9  CYS9       -0.2730
     19  CB         7.2440   -7.4830   -7.8470 C.3     9  CYS9        0.0996
     20  SG         6.4420   -6.0850   -8.6790 S.3     9  CYS9       -0.0797
     21  N          6.5460  -10.2160  -10.2490 N.am   10  PRO10      -0.2715
     22  CA         6.8780  -10.6620  -11.6020 C.3    10  PRO10       0.1536
     23  C          6.2370   -9.8840  -12.7610 C.2    10  PRO10       0.2598
     24  O          6.5730  -10.1300  -13.9160 O.2    10  PRO10      -0.2715
     25  CB         6.4320  -12.1130  -11.5760 C.3    10  PRO10       0.0310
     26  CG         5.1400  -12.0160  -10.8040 C.3    10  PRO10       0.0237
     27  CD         5.4910  -11.0660   -9.6600 C.3    10  PRO10       0.0939
     28  N          5.3150   -8.9650  -12.4690 N.am   11  ASN11      -0.1973
     29  CA         4.6690   -8.1980  -13.5340 C.3    11  ASN11       0.1688
     30  C          5.7190   -7.3670  -14.2640 C.2    11  ASN11       0.2292
     31  O          6.4520   -6.6080  -13.6360 O.2    11  ASN11      -0.2864
     32  CB         3.5800   -7.2940  -12.9520 C.3    11  ASN11       0.1181
     33  CG         2.9540   -6.3970  -13.9960 C.2    11  ASN11       0.2629
     34  OD1        3.4380   -5.2950  -14.2630 O.2    11  ASN11      -0.2716
     35  ND2        1.8800   -6.8750  -14.6100 N.am   11  ASN11      -0.0877
     36  N          7.0810   -3.7760  -13.6190 N.3    14  TYR14      -0.1241
     37  CA         8.0110   -3.5940  -12.5130 C.3    14  TYR14       0.1605
     38  C          9.2760   -4.4230  -12.6770 C.2    14  TYR14       0.2264
     39  O         10.3770   -3.9000  -12.6080 O.2    14  TYR14      -0.2867
     40  CB         7.3520   -3.9830  -11.1910 C.3    14  TYR14       0.0534
     41  CG         6.1180   -3.1960  -10.8550 C.ar   14  TYR14      -0.0201
     42  CD1        4.8900   -3.4930  -11.4510 C.ar   14  TYR14      -0.0009
     43  CD2        6.1680   -2.1540   -9.9440 C.ar   14  TYR14      -0.0009
     44  CE1        3.7440   -2.7630  -11.1410 C.ar   14  TYR14       0.0417
     45  CE2        5.0300   -1.4210   -9.6280 C.ar   14  TYR14       0.0417
     46  CZ         3.8260   -1.7330  -10.2300 C.ar   14  TYR14       0.1957
     47  OH         2.7120   -1.0090   -9.9180 O.3    14  TYR14      -0.2866
     48  N          8.9910   -2.1200   -5.7780 N.3    21  ALA21      -0.1245
     49  CA         7.5610   -1.8410   -5.7560 C.3    21  ALA21       0.1562
     50  C          7.1320   -1.5710   -4.3220 C.2    21  ALA21       0.2260
     51  O          7.2960   -2.4320   -3.4530 O.2    21  ALA21      -0.2867
     52  CB         6.7890   -3.0310   -6.3160 C.3    21  ALA21       0.0290
     53  N          2.7240    1.2020   -6.2980 N.3    46  SER46      -0.1217
     54  CA         1.9010    0.1160   -6.7990 C.3    46  SER46       0.1889
     55  C          0.6530    0.0810   -5.9320 C.2    46  SER46       0.2288
     56  O          0.7440    0.1100   -4.7010 O.2    46  SER46      -0.2866
     57  CB         2.6320   -1.2160   -6.6780 C.3    46  SER46       0.2089
     58  OG         1.7150   -2.2870   -6.8080 O.3    46  SER46      -0.2183
     59  N         -1.4050   -2.4080   -6.0770 N.3    48  ASP48      -0.1225
     60  CA        -1.6610   -3.8270   -5.8320 C.3    48  ASP48       0.1805
     61  C         -0.6560   -4.4440   -4.8710 C.2    48  ASP48       0.2597
     62  O         -0.4730   -5.6600   -4.8560 O.2    48  ASP48      -0.2718
     63  CB        -1.6350   -4.6090   -7.1430 C.3    48  ASP48       0.1424
     64  CG        -2.4570   -3.9540   -8.2230 C.2    48  ASP48       0.3668
     65  OD1       -3.6380   -3.6330   -7.9630 O.co2  48  ASP48      -0.2456
     66  OD2       -1.9220   -3.7630   -9.3360 O.co2  48  ASP48      -0.2456
     67  N          0.0010   -3.6090   -4.0740 N.am   49  ILE49      -0.1980
     68  CA         0.9730   -4.1020   -3.1120 C.3    49  ILE49       0.1595
     69  C          0.5830   -3.6510   -1.6990 C.2    49  ILE49       0.2287
     70  O          0.5460   -2.4560   -1.3980 O.2    49  ILE49      -0.2864
     71  CB         2.3970   -3.6170   -3.4690 C.3    49  ILE49       0.0276
     72  CG1        3.4160   -4.2860   -2.5510 C.3    49  ILE49       0.0022
     73  CG2        2.4830   -2.1070   -3.3630 C.3    49  ILE49       0.0022
     74  CD1        4.8490   -4.0090   -2.9300 C.3    49  ILE49       0.0001
     75  N          7.8470   -5.2220   -3.0960 N.3    55  GLY55      -0.1225
     76  CA         8.0070   -6.2150   -4.1470 C.3    55  GLY55       0.1811
     77  C          9.2720   -6.1470   -4.9800 C.2    55  GLY55       0.2280
     78  O          9.6890   -5.0780   -5.4280 O.2    55  GLY55      -0.2866
@<TRIPOS>BOND
     1    35    33   am
     2    30    31    2
     3    30    29    1
     4    34    33    2
     5    33    32    1
     6    24    23    2
     7    36    37    1
     8    29    32    1
     9    29    28    1
    10    23    28   am
    11    23    22    1
    12    38    39    2
    13    38    37    1
    14    37    40    1
    15    22    25    1
    16    22    21    1
    17    25    26    1
    18    42    44   ar
    19    42    41   ar
    20    40    41    1
    21    44    46   ar
    22    41    43   ar
    23    26    27    1
    24    21    27    1
    25    21    17   am
    26    46    47    1
    27    46    45   ar
    28    18    17    2
    29    43    45   ar
    30    17    16    1
    31    66    64   ar
    32    20    19    1
    33    14    12   am
    34    64    65   ar
    35    64    63    1
    36    16    19    1
    37    16    15    1
    38    13    12    2
    39    12    11    1
    40    15     9   am
    41    63    60    1
    42    58    57    1
    43    54    57    1
    44    54    53    1
    45    54    55    1
    46     9    10    2
    47     9     8    1
    48    52    49    1
    49    59    60    1
    50    11     8    1
    51    55    56    2
    52    60    61    1
    53    48    49    1
    54    49    50    1
    55     8     7    1
    56    78    77    2
    57    77    76    1
    58    61    62    2
    59    61    67   am
    60    50    51    2
    61    76    75    1
    62     7     3   am
    63    67    68    1
    64     4     3    2
    65    71    73    1
    66    71    68    1
    67    71    72    1
    68     3     2    1
    69    68    69    1
    70    74    72    1
    71     6     5    1
    72     2     5    1
    73     2     1    1
    74    69    70    2
