@<TRIPOS>MOLECULE
tmp/1cr5A01.pdb
 85 80 0 0 0
SMALL
GASTEIGER

@<TRIPOS>ATOM
      1  N          5.7860   -7.5020  -15.5890 N.3    12  ASN12      -0.1225
      2  CA         6.7900   -6.7790  -16.3760 C.3    12  ASN12       0.1785
      3  C          6.8760   -5.2590  -16.2420 C.2    12  ASN12       0.2597
      4  O          7.9120   -4.6730  -16.5650 O.2    12  ASN12      -0.2718
      5  CB         6.6890   -7.1410  -17.8670 C.3    12  ASN12       0.1169
      6  CG         5.2680   -7.1040  -18.3880 C.2    12  ASN12       0.2627
      7  OD1        4.3990   -6.4510  -17.8160 O.2    12  ASN12      -0.2716
      8  ND2        5.0280   -7.8060  -19.4920 N.am   12  ASN12      -0.0877
      9  N          5.8130   -4.6060  -15.7900 N.am   13  SER13      -0.1952
     10  CA         5.8760   -3.1540  -15.6270 C.3    13  SER13       0.1924
     11  C          6.8830   -2.8250  -14.5250 C.2    13  SER13       0.2314
     12  O          7.4730   -1.7420  -14.5020 O.2    13  SER13      -0.2863
     13  CB         4.5060   -2.5880  -15.2520 C.3    13  SER13       0.2116
     14  OG         3.7750   -2.2220  -16.4080 O.3    13  SER13      -0.2180
     15  N         10.9770   -5.5140  -15.0590 N.3    16  LEU16      -0.1231
     16  CA        11.9520   -5.1170  -16.0790 C.3    16  LEU16       0.1693
     17  C         12.4710   -3.6970  -15.8440 C.2    16  LEU16       0.2591
     18  O         13.4260   -3.2720  -16.5010 O.2    16  LEU16      -0.2718
     19  CB        11.3400   -5.2200  -17.4800 C.3    16  LEU16       0.0284
     20  CG        10.8540   -6.6040  -17.9150 C.3    16  LEU16       0.0019
     21  CD1       10.2660   -6.5520  -19.3170 C.3    16  LEU16       0.0001
     22  CD2       11.9870   -7.6170  -17.8490 C.3    16  LEU16       0.0001
     23  N         11.8600   -2.9850  -14.9170 N.am   17  ALA17      -0.1980
     24  CA        12.2480   -1.6080  -14.6470 C.3    17  ALA17       0.1597
     25  C         13.2610   -1.4650  -13.5060 C.2    17  ALA17       0.2287
     26  O         13.6870   -0.3550  -13.1820 O.2    17  ALA17      -0.2864
     27  CB        10.9940   -0.7820  -14.3500 C.3    17  ALA17       0.0319
     28  N          8.8640    2.6340   -6.7600 N.3    44  ARG44      -0.1245
     29  CA         7.7600    2.7520   -7.6900 C.3    44  ARG44       0.1563
     30  C          6.4800    2.3670   -6.9920 C.2    44  ARG44       0.2260
     31  O          6.3440    1.2620   -6.4700 O.2    44  ARG44      -0.2867
     32  CB         7.9050    1.8780   -8.9210 C.3    44  ARG44       0.0307
     33  CG         6.6200    1.9670   -9.7500 C.3    44  ARG44       0.0489
     34  CD         6.8040    1.5310  -11.1620 C.3    44  ARG44       0.2205
     35  NE         7.8620    2.2810  -11.8200 N.pl3  44  ARG44      -0.0865
     36  CZ         8.2310    2.0530  -13.0710 C.cat  44  ARG44       0.5346
     37  NH1        7.6090    1.1100  -13.7540 N.pl3  44  ARG44       0.1354
     38  NH2        9.2180    2.7490  -13.6280 N.pl3  44  ARG44       0.1354
     39  N         19.7080    0.5290  -24.5830 N.3   110  GLN110     -0.1245
     40  CA        18.5750    0.0060  -23.8500 C.3   110  GLN110      0.1566
     41  C         18.7780    0.1640  -22.3450 C.2   110  GLN110      0.2260
     42  O         17.8340    0.4520  -21.6100 O.2   110  GLN110     -0.2867
     43  CB        18.3750   -1.4770  -24.1880 C.3   110  GLN110      0.0367
     44  CG        17.2150   -2.1270  -23.4470 C.3   110  GLN110      0.0905
     45  CD        15.8660   -1.7380  -24.0200 C.2   110  GLN110      0.2608
     46  OE1       15.6710   -0.6160  -24.4860 O.2   110  GLN110     -0.2717
     47  NE2       14.9210   -2.6640  -23.9740 N.am  110  GLN110     -0.0878
     48  N         18.2820    3.6700  -21.4820 N.3   113  ARG113     -0.1231
     49  CA        16.8660    3.9800  -21.6770 C.3   113  ARG113      0.1694
     50  C         16.0040    3.4990  -20.5210 C.2   113  ARG113      0.2592
     51  O         15.1100    4.2090  -20.0530 O.2   113  ARG113     -0.2718
     52  CB        16.3250    3.3500  -22.9610 C.3   113  ARG113      0.0321
     53  CG        14.8360    3.6160  -23.1550 C.3   113  ARG113      0.0489
     54  CD        14.1790    2.5620  -24.0280 C.3   113  ARG113      0.2205
     55  NE        14.5610    2.6910  -25.4260 N.pl3 113  ARG113     -0.0865
     56  CZ        14.3460    1.7570  -26.3460 C.cat 113  ARG113      0.5346
     57  NH1       13.7480    0.6190  -26.0130 N.pl3 113  ARG113      0.1354
     58  NH2       14.7370    1.9550  -27.5990 N.pl3 113  ARG113      0.1354
     59  N         16.2620    2.2830  -20.0610 N.am  114  CYS114     -0.1956
     60  CA        15.4700    1.7420  -18.9790 C.3   114  CYS114      0.1843
     61  C         15.8800    2.2080  -17.5970 C.2   114  CYS114      0.2625
     62  O         15.0280    2.4010  -16.7350 O.2   114  CYS114     -0.2714
     63  CB        15.5150    0.2110  -18.9810 C.3   114  CYS114      0.0997
     64  SG        15.0390   -0.6360  -20.5080 S.3   114  CYS114     -0.0797
     65  N         17.1700    2.4160  -17.3780 N.am  115  TYR115     -0.1974
     66  CA        17.6070    2.7460  -16.0230 C.3   115  TYR115      0.1639
     67  C         18.2830    4.0790  -15.7270 C.2   115  TYR115      0.2290
     68  O         18.8250    4.2650  -14.6370 O.2   115  TYR115     -0.2864
     69  CB        18.4960    1.6000  -15.5170 C.3   115  TYR115      0.0560
     70  CG        17.9630    0.2350  -15.8830 C.ar  115  TYR115     -0.0198
     71  CD1       18.6470   -0.5870  -16.7790 C.ar  115  TYR115     -0.0009
     72  CD2       16.7390   -0.2120  -15.3840 C.ar  115  TYR115     -0.0009
     73  CE1       18.1190   -1.8130  -17.1730 C.ar  115  TYR115      0.0417
     74  CE2       16.2070   -1.4380  -15.7690 C.ar  115  TYR115      0.0417
     75  CZ        16.8990   -2.2300  -16.6650 C.ar  115  TYR115      0.1957
     76  OH        16.3580   -3.4270  -17.0770 O.3   115  TYR115     -0.2866
     77  N         15.1790   -6.5150  -20.3020 N.3   129  GLU129     -0.1245
     78  CA        14.5790   -7.0430  -21.5040 C.3   129  GLU129      0.1567
     79  C         15.2470   -6.3420  -22.6660 C.2   129  GLU129      0.2260
     80  O         15.5250   -5.1430  -22.6100 O.2   129  GLU129     -0.2867
     81  CB        13.0730   -6.7610  -21.4930 C.3   129  GLU129      0.0388
     82  CG        12.3020   -7.2510  -22.7080 C.3   129  GLU129      0.1160
     83  CD        12.4460   -6.3340  -23.9120 C.2   129  GLU129      0.3649
     84  OE1       12.3990   -5.1050  -23.7330 O.co2 129  GLU129     -0.2457
     85  OE2       12.5930   -6.8410  -25.0410 O.co2 129  GLU129     -0.2457
@<TRIPOS>BOND
     1    58    56    1
     2    56    57    1
     3    56    55    2
     4    55    54    1
     5    85    83   ar
     6    39    40    1
     7    46    45    2
     8    43    40    1
     9    43    44    1
    10    54    53    1
    11    45    47   am
    12    45    44    1
    13    83    84   ar
    14    83    82    1
    15    40    41    1
    16    53    52    1
    17    52    49    1
    18    82    81    1
    19    79    80    2
    20    79    78    1
    21    41    42    2
    22    49    48    1
    23    49    50    1
    24    78    81    1
    25    78    77    1
    26    50    59   am
    27    50    51    2
    28    64    63    1
    29    59    60    1
    30     8     6   am
    31    21    20    1
    32    63    60    1
    33    60    61    1
    34     6     5    1
    35     6     7    2
    36    20    22    1
    37    20    19    1
    38     5     2    1
    39    61    65   am
    40    61    62    2
    41    19    16    1
    42    65    66    1
    43    73    71   ar
    44    73    75   ar
    45    76    75    1
    46    71    70   ar
    47    75    74   ar
    48     4     3    2
    49    18    17    2
    50    14    13    1
    51     2     3    1
    52     2     1    1
    53     3     9   am
    54    16    17    1
    55    16    15    1
    56    66    67    1
    57    66    69    1
    58    70    69    1
    59    70    72   ar
    60    17    23   am
    61     9    10    1
    62    74    72   ar
    63    67    68    2
    64    10    13    1
    65    10    11    1
    66    23    24    1
    67    24    27    1
    68    24    25    1
    69    11    12    2
    70    37    36    1
    71    38    36    1
    72    25    26    2
    73    36    35    2
    74    35    34    1
    75    34    33    1
    76    33    32    1
    77    32    29    1
    78    29    30    1
    79    29    28    1
    80    30    31    2
