@<TRIPOS>MOLECULE
tmp/1cr6A00.pdb
 210 207 0 0 0
SMALL
GASTEIGER

@<TRIPOS>ATOM
      1  N        -43.3030 -108.4680  -31.7120 N.3   208  PHE208     -0.1241
      2  CA       -43.4680 -108.2970  -30.2830 C.3   208  PHE208      0.1605
      3  C        -42.2540 -108.7330  -29.5090 C.2   208  PHE208      0.2264
      4  O        -41.6740 -109.7710  -29.7950 O.2   208  PHE208     -0.2867
      5  CB       -44.6850 -109.0860  -29.7810 C.3   208  PHE208      0.0534
      6  CG       -44.8870 -109.0040  -28.2860 C.ar  208  PHE208     -0.0203
      7  CD1      -45.8230 -108.1170  -27.7370 C.ar  208  PHE208     -0.0042
      8  CD2      -44.1100 -109.7750  -27.4190 C.ar  208  PHE208     -0.0042
      9  CE1      -45.9760 -107.9960  -26.3580 C.ar  208  PHE208     -0.0003
     10  CE2      -44.2500 -109.6610  -26.0290 C.ar  208  PHE208     -0.0003
     11  CZ       -45.1870 -108.7670  -25.4990 C.ar  208  PHE208     -0.0000
     12  N        -41.6730 -111.7620  -36.7580 N.3   276  ASP276     -0.1225
     13  CA       -42.4560 -112.0670  -35.5550 C.3   276  ASP276      0.1805
     14  C        -43.9380 -111.9820  -35.9300 C.2   276  ASP276      0.2597
     15  O        -44.3710 -112.4810  -36.9770 O.2   276  ASP276     -0.2718
     16  CB       -42.1460 -111.0390  -34.4580 C.3   276  ASP276      0.1424
     17  CG       -42.0730 -111.6430  -33.0620 C.2   276  ASP276      0.3668
     18  OD1      -41.2290 -111.1820  -32.2580 O.co2 276  ASP276     -0.2456
     19  OD2      -42.8550 -112.5560  -32.7490 O.co2 276  ASP276     -0.2456
     20  N        -44.7040 -111.3020  -35.0880 N.am  277  TRP277     -0.1976
     21  CA       -46.1320 -111.1540  -35.3210 C.3   277  TRP277      0.1640
     22  C        -46.4840 -110.5540  -36.6760 C.2   277  TRP277      0.2290
     23  O        -47.3900 -111.0280  -37.3450 O.2   277  TRP277     -0.2864
     24  CB       -46.7330 -110.2970  -34.2220 C.3   277  TRP277      0.0576
     25  CG       -47.4500 -111.0820  -33.1620 C.ar  277  TRP277      0.0006
     26  CD1      -47.1280 -111.1480  -31.8300 C.ar  277  TRP277      0.0946
     27  CD2      -48.6180 -111.8890  -33.3330 C.ar  277  TRP277      0.0152
     28  NE1      -48.0260 -111.9460  -31.1630 N.ar  277  TRP277     -0.2442
     29  CE2      -48.9530 -112.4170  -32.0570 C.ar  277  TRP277      0.0810
     30  CE3      -49.4180 -112.2230  -34.4400 C.ar  277  TRP277      0.0012
     31  CZ2      -50.0640 -113.2700  -31.8520 C.ar  277  TRP277      0.0191
     32  CZ3      -50.5340 -113.0760  -34.2350 C.ar  277  TRP277      0.0001
     33  CH2      -50.8380 -113.5830  -32.9460 C.ar  277  TRP277      0.0015
     34  N        -46.6570 -112.6740  -39.6040 N.3   280  VAL280     -0.1245
     35  CA       -47.9700 -113.2650  -39.7880 C.3   280  VAL280      0.1561
     36  C        -48.7840 -112.3320  -40.6820 C.2   280  VAL280      0.2260
     37  O        -49.1900 -112.7210  -41.7940 O.2   280  VAL280     -0.2867
     38  CB       -48.7100 -113.4260  -38.4400 C.3   280  VAL280      0.0252
     39  CG1      -50.0880 -113.9830  -38.6800 C.3   280  VAL280      0.0019
     40  CG2      -47.9170 -114.3220  -37.5050 C.3   280  VAL280      0.0019
     41  N        -41.1020 -116.1310  -38.8120 N.3   301  THR301     -0.1218
     42  CA       -42.4760 -116.6040  -38.9190 C.3   301  THR301      0.1862
     43  C        -42.8550 -117.3120  -40.2050 C.2   301  THR301      0.2287
     44  O        -42.7860 -116.7670  -41.3110 O.2   301  THR301     -0.2866
     45  CB       -43.5180 -115.4930  -38.6500 C.3   301  THR301      0.1770
     46  OG1      -43.2080 -114.8420  -37.4060 O.3   301  THR301     -0.2211
     47  CG2      -44.9310 -116.0980  -38.5710 C.3   301  THR301      0.0375
     48  N        -48.4540 -120.2160  -41.2940 N.3   304  MET304     -0.1245
     49  CA       -49.1660 -121.3300  -40.6800 C.3   304  MET304      0.1570
     50  C        -50.7040 -121.2160  -40.7380 C.2   304  MET304      0.2261
     51  O        -51.3700 -120.8330  -39.7660 O.2   304  MET304     -0.2867
     52  CB       -48.7060 -121.5400  -39.2170 C.3   304  MET304      0.0387
     53  CG       -47.4170 -120.8120  -38.7780 C.3   304  MET304      0.0595
     54  SD       -47.5330 -119.9740  -37.1030 S.3   304  MET304     -0.1393
     55  CE       -46.0660 -118.9010  -37.0710 C.3   304  MET304      0.0692
     56  N        -45.6950 -122.6140  -26.2310 N.3   322  PHE322     -0.1241
     57  CA       -46.5620 -121.4810  -26.4670 C.3   322  PHE322      0.1605
     58  C        -47.3110 -121.2390  -25.1710 C.2   322  PHE322      0.2264
     59  O        -48.4110 -120.6900  -25.1570 O.2   322  PHE322     -0.2867
     60  CB       -47.5620 -121.7800  -27.5860 C.3   322  PHE322      0.0534
     61  CG       -46.9540 -121.8280  -28.9560 C.ar  322  PHE322     -0.0203
     62  CD1      -45.5890 -121.6440  -29.1390 C.ar  322  PHE322     -0.0042
     63  CD2      -47.7520 -122.0730  -30.0690 C.ar  322  PHE322     -0.0042
     64  CE1      -45.0230 -121.7040  -30.4210 C.ar  322  PHE322     -0.0003
     65  CE2      -47.2020 -122.1330  -31.3420 C.ar  322  PHE322     -0.0003
     66  CZ       -45.8280 -121.9470  -31.5170 C.ar  322  PHE322     -0.0000
     67  N        -46.4940 -119.2190  -22.7550 N.3   324  TYR324     -0.1227
     68  CA       -46.5130 -117.7720  -22.5600 C.3   324  TYR324      0.1736
     69  C        -47.6680 -117.1530  -23.3350 C.2   324  TYR324      0.2595
     70  O        -48.3010 -116.2270  -22.8670 O.2   324  TYR324     -0.2718
     71  CB       -45.2010 -117.1650  -23.0320 C.3   324  TYR324      0.0548
     72  CG       -45.0320 -117.2370  -24.5290 C.ar  324  TYR324     -0.0200
     73  CD1      -45.4310 -116.1930  -25.3510 C.ar  324  TYR324     -0.0009
     74  CD2      -44.4680 -118.3520  -25.1240 C.ar  324  TYR324     -0.0009
     75  CE1      -45.2660 -116.2650  -26.7330 C.ar  324  TYR324      0.0417
     76  CE2      -44.2990 -118.4310  -26.4940 C.ar  324  TYR324      0.0417
     77  CZ       -44.6940 -117.3940  -27.2920 C.ar  324  TYR324      0.1957
     78  OH       -44.4960 -117.4970  -28.6510 O.3   324  TYR324     -0.2866
     79  N        -47.9400 -117.6710  -24.5200 N.am  325  GLN325     -0.1979
     80  CA       -49.0200 -117.1410  -25.3160 C.3   325  GLN325      0.1601
     81  C        -50.3210 -117.2340  -24.5580 C.2   325  GLN325      0.2287
     82  O        -51.2270 -116.4180  -24.7450 O.2   325  GLN325     -0.2864
     83  CB       -49.1560 -117.9160  -26.6030 C.3   325  GLN325      0.0394
     84  CG       -48.2540 -117.4230  -27.6850 C.3   325  GLN325      0.0908
     85  CD       -48.3460 -118.2740  -28.9360 C.2   325  GLN325      0.2608
     86  OE1      -49.4310 -118.5480  -29.4590 O.2   325  GLN325     -0.2717
     87  NE2      -47.2000 -118.7010  -29.4230 N.am  325  GLN325     -0.0878
     88  N        -50.2430 -114.5240  -21.6410 N.3   328  PHE328     -0.1241
     89  CA       -50.6670 -113.2630  -22.2630 C.3   328  PHE328      0.1605
     90  C        -52.1760 -113.1290  -22.4650 C.2   328  PHE328      0.2264
     91  O        -52.7390 -112.0520  -22.2880 O.2   328  PHE328     -0.2867
     92  CB       -49.9910 -113.0770  -23.6300 C.3   328  PHE328      0.0534
     93  CG       -48.5010 -112.8480  -23.5590 C.ar  328  PHE328     -0.0203
     94  CD1      -47.8630 -112.6060  -22.3400 C.ar  328  PHE328     -0.0042
     95  CD2      -47.7280 -112.8710  -24.7300 C.ar  328  PHE328     -0.0042
     96  CE1      -46.4720 -112.3860  -22.2890 C.ar  328  PHE328     -0.0003
     97  CE2      -46.3450 -112.6530  -24.6930 C.ar  328  PHE328     -0.0003
     98  CZ       -45.7130 -112.4090  -23.4690 C.ar  328  PHE328     -0.0000
     99  N        -35.9290 -109.9700  -22.6930 N.3   349  PHE349     -0.1241
    100  CA       -36.3920 -110.3390  -24.0220 C.3   349  PHE349      0.1605
    101  C        -35.2870 -110.3590  -25.0570 C.2   349  PHE349      0.2264
    102  O        -35.1060 -111.3580  -25.7500 O.2   349  PHE349     -0.2867
    103  CB       -37.4790 -109.3890  -24.4910 C.3   349  PHE349      0.0534
    104  CG       -38.8640 -109.8400  -24.1540 C.ar  349  PHE349     -0.0203
    105  CD1      -39.5650 -110.6550  -25.0260 C.ar  349  PHE349     -0.0042
    106  CD2      -39.5070 -109.3730  -23.0040 C.ar  349  PHE349     -0.0042
    107  CE1      -40.9070 -110.9990  -24.7720 C.ar  349  PHE349     -0.0003
    108  CE2      -40.8450 -109.7100  -22.7370 C.ar  349  PHE349     -0.0003
    109  CZ       -41.5470 -110.5240  -23.6280 C.ar  349  PHE349     -0.0000
    110  N        -32.7740 -116.0060  -19.9640 N.3   358  PHE358     -0.1227
    111  CA       -33.9420 -116.1910  -20.8290 C.3   358  PHE358      0.1736
    112  C        -35.3610 -115.8240  -20.3620 C.2   358  PHE358      0.2595
    113  O        -35.5700 -115.1880  -19.3260 O.2   358  PHE358     -0.2718
    114  CB       -33.9460 -117.6400  -21.3290 C.3   358  PHE358      0.0547
    115  CG       -32.9860 -117.8940  -22.4610 C.ar  358  PHE358     -0.0202
    116  CD1      -33.0770 -117.1600  -23.6450 C.ar  358  PHE358     -0.0042
    117  CD2      -32.0050 -118.8820  -22.3550 C.ar  358  PHE358     -0.0042
    118  CE1      -32.2040 -117.4080  -24.7150 C.ar  358  PHE358     -0.0003
    119  CE2      -31.1300 -119.1410  -23.4150 C.ar  358  PHE358     -0.0003
    120  CZ       -31.2290 -118.4020  -24.6000 C.ar  358  PHE358     -0.0000
    121  N        -36.3270 -116.2470  -21.1720 N.am  359  ILE359     -0.1980
    122  CA       -37.7460 -115.9980  -20.9510 C.3   359  ILE359      0.1595
    123  C        -38.4290 -117.3500  -20.7860 C.2   359  ILE359      0.2287
    124  O        -38.0990 -118.2980  -21.4960 O.2   359  ILE359     -0.2864
    125  CB       -38.3350 -115.2470  -22.1860 C.3   359  ILE359      0.0276
    126  CG1      -37.9570 -113.7740  -22.1140 C.3   359  ILE359      0.0022
    127  CG2      -39.8430 -115.4030  -22.2740 C.3   359  ILE359      0.0022
    128  CD1      -38.8210 -112.9710  -21.1710 C.3   359  ILE359      0.0001
    129  N        -41.0040 -119.1350  -21.7790 N.3   361  VAL361     -0.1245
    130  CA       -42.0310 -119.4470  -22.7840 C.3   361  VAL361      0.1561
    131  C        -42.8180 -120.7280  -22.4960 C.2   361  VAL361      0.2260
    132  O        -44.0020 -120.8540  -22.8380 O.2   361  VAL361     -0.2867
    133  CB       -41.3890 -119.6170  -24.1770 C.3   361  VAL361      0.0252
    134  CG1      -41.1240 -118.2670  -24.7860 C.3   361  VAL361      0.0019
    135  CG2      -40.1060 -120.3870  -24.0570 C.3   361  VAL361      0.0019
    136  N        -43.6470 -114.6630  -17.1790 N.3   370  ILE370     -0.1245
    137  CA       -42.7150 -114.9100  -18.2520 C.3   370  ILE370      0.1561
    138  C        -41.3300 -114.3860  -17.8900 C.2   370  ILE370      0.2260
    139  O        -40.3990 -114.4730  -18.6870 O.2   370  ILE370     -0.2867
    140  CB       -43.2350 -114.2580  -19.5570 C.3   370  ILE370      0.0252
    141  CG1      -42.3030 -114.6010  -20.7160 C.3   370  ILE370      0.0019
    142  CG2      -43.3860 -112.7340  -19.3810 C.3   370  ILE370      0.0019
    143  CD1      -43.0080 -115.1450  -21.9430 C.3   370  ILE370      0.0001
    144  N        -51.9830 -110.9770  -29.4230 N.3   408  TYR408     -0.1241
    145  CA       -52.1810 -112.3580  -29.0300 C.3   408  TYR408      0.1605
    146  C        -53.6730 -112.6520  -28.8360 C.2   408  TYR408      0.2264
    147  O        -54.2250 -113.6330  -29.3420 O.2   408  TYR408     -0.2867
    148  CB       -51.4210 -112.5880  -27.7310 C.3   408  TYR408      0.0534
    149  CG       -49.9250 -112.6340  -27.9080 C.ar  408  TYR408     -0.0201
    150  CD1      -49.1130 -111.6090  -27.4460 C.ar  408  TYR408     -0.0009
    151  CD2      -49.3170 -113.7190  -28.5480 C.ar  408  TYR408     -0.0009
    152  CE1      -47.7290 -111.6710  -27.6200 C.ar  408  TYR408      0.0417
    153  CE2      -47.9350 -113.7870  -28.7250 C.ar  408  TYR408      0.0417
    154  CZ       -47.1580 -112.7680  -28.2610 C.ar  408  TYR408      0.1957
    155  OH       -45.8100 -112.8670  -28.4520 O.3   408  TYR408     -0.2866
    156  N        -34.1070 -120.3750  -33.0510 N.3   438  ASP438     -0.1225
    157  CA       -35.2310 -119.6210  -32.5390 C.3   438  ASP438      0.1805
    158  C        -36.1320 -120.6410  -31.8850 C.2   438  ASP438      0.2598
    159  O        -36.8080 -121.4240  -32.5600 O.2   438  ASP438     -0.2718
    160  CB       -35.9910 -118.9080  -33.6560 C.3   438  ASP438      0.1424
    161  CG       -37.1760 -118.1070  -33.1230 C.2   438  ASP438      0.3668
    162  OD1      -37.3810 -118.1090  -31.8850 O.co2 438  ASP438     -0.2456
    163  OD2      -37.8960 -117.4860  -33.9340 O.co2 438  ASP438     -0.2456
    164  N        -36.1140 -120.6330  -30.5600 N.am  439  ILE439     -0.1966
    165  CA       -36.8910 -121.5500  -29.7470 C.3   439  ILE439      0.1727
    166  C        -38.3360 -121.6280  -30.2330 C.2   439  ILE439      0.2616
    167  O        -38.7040 -122.6160  -30.8470 O.2   439  ILE439     -0.2715
    168  CB       -36.8010 -121.1230  -28.2960 C.3   439  ILE439      0.0290
    169  CG1      -35.3260 -120.8580  -27.9260 C.3   439  ILE439      0.0022
    170  CG2      -37.3700 -122.1930  -27.4280 C.3   439  ILE439      0.0023
    171  CD1      -34.6910 -119.5600  -28.5300 C.3   439  ILE439      0.0001
    172  N        -39.1730 -120.6230  -29.9780 N.am  440  VAL440     -0.1963
    173  CA       -40.5430 -120.6930  -30.5180 C.3   440  VAL440      0.1727
    174  C        -40.3370 -120.1410  -31.9070 C.2   440  VAL440      0.2616
    175  O        -39.4970 -119.2590  -32.0780 O.2   440  VAL440     -0.2715
    176  CB       -41.5830 -119.8260  -29.7190 C.3   440  VAL440      0.0290
    177  CG1      -40.9140 -119.0840  -28.6330 C.3   440  VAL440      0.0023
    178  CG2      -42.3290 -118.8980  -30.6260 C.3   440  VAL440      0.0023
    179  N        -41.0700 -120.6430  -32.8950 N.am  441  LEU441     -0.1977
    180  CA       -40.8630 -120.1730  -34.2730 C.3   441  LEU441      0.1596
    181  C        -39.5660 -120.8480  -34.7380 C.2   441  LEU441      0.2287
    182  O        -38.5670 -120.1800  -35.0350 O.2   441  LEU441     -0.2864
    183  CB       -40.6560 -118.6430  -34.3360 C.3   441  LEU441      0.0297
    184  CG       -41.7420 -117.5670  -34.1970 C.3   441  LEU441      0.0022
    185  CD1      -41.1960 -116.3050  -34.8720 C.3   441  LEU441      0.0001
    186  CD2      -43.0850 -118.0030  -34.8110 C.3   441  LEU441      0.0001
    187  N        -34.2560 -115.4200  -31.9660 N.3   466  HIS466     -0.1226
    188  CA       -35.4900 -114.7760  -32.4090 C.3   466  HIS466      0.1752
    189  C        -35.3090 -113.4230  -33.0230 C.2   466  HIS466      0.2596
    190  O        -35.9160 -113.0990  -34.0490 O.2   466  HIS466     -0.2718
    191  CB       -36.4290 -114.5820  -31.2590 C.3   466  HIS466      0.0759
    192  CG       -37.7730 -114.1050  -31.6770 C.ar  466  HIS466      0.0818
    193  ND1      -38.4610 -114.6730  -32.7240 N.ar  466  HIS466     -0.2268
    194  CD2      -38.5820 -113.1560  -31.1590 C.ar  466  HIS466      0.1154
    195  CE1      -39.6430 -114.0970  -32.8280 C.ar  466  HIS466      0.1986
    196  NE2      -39.7400 -113.1730  -31.8890 N.ar  466  HIS466     -0.2212
    197  N        -34.4940 -112.6140  -32.3540 N.am  467  TRP467     -0.1976
    198  CA       -34.2060 -111.2560  -32.7900 C.3   467  TRP467      0.1640
    199  C        -33.2140 -111.2940  -33.9310 C.2   467  TRP467      0.2290
    200  O        -32.0760 -110.8460  -33.8100 O.2   467  TRP467     -0.2864
    201  CB       -33.6760 -110.4870  -31.5940 C.3   467  TRP467      0.0576
    202  CG       -34.3850 -110.8910  -30.3260 C.ar  467  TRP467      0.0006
    203  CD1      -33.8490 -111.5520  -29.2840 C.ar  467  TRP467      0.0946
    204  CD2      -35.7660 -110.6460  -29.9830 C.ar  467  TRP467      0.0152
    205  NE1      -34.7940 -111.7430  -28.3020 N.ar  467  TRP467     -0.2442
    206  CE2      -35.9790 -111.1930  -28.7070 C.ar  467  TRP467      0.0810
    207  CE3      -36.8380 -110.0150  -30.6330 C.ar  467  TRP467      0.0012
    208  CZ2      -37.2230 -111.1280  -28.0590 C.ar  467  TRP467      0.0191
    209  CZ3      -38.0740 -109.9520  -29.9890 C.ar  467  TRP467      0.0001
    210  CH2      -38.2540 -110.5000  -28.7210 C.ar  467  TRP467      0.0015
@<TRIPOS>BOND
     1    37    36    2
     2    44    43    2
     3    48    49    1
     4    50    49    1
     5    50    51    2
     6    36    35    1
     7    49    52    1
     8    43    42    1
     9    35    34    1
    10    35    38    1
    11    52    53    1
    12    42    41    1
    13    42    45    1
    14    53    54    1
    15    39    38    1
    16    45    47    1
    17    45    46    1
    18    38    40    1
    19    23    22    2
    20    54    55    1
    21    15    14    2
    22    12    13    1
    23    22    21    1
    24    14    13    1
    25    14    20   am
    26    13    16    1
    27    21    20    1
    28    21    24    1
    29   182   181    2
    30   185   184    1
    31   186   184    1
    32   181   180    1
    33    16    17    1
    34    30    32   ar
    35    30    27   ar
    36   183   180    1
    37   183   184    1
    38   180   179    1
    39    32    33   ar
    40    24    25    1
    41   190   189    2
    42   163   161   ar
    43   199   200    2
    44   199   198    1
    45   160   161    1
    46   160   157    1
    47    27    25   ar
    48    27    29   ar
    49    25    26   ar
    50   161   162   ar
    51    17    19   ar
    52    17    18   ar
    53   156   157    1
    54   189   188    1
    55   189   197   am
    56    33    31   ar
    57   179   174   am
    58   195   193   ar
    59   195   196   ar
    60   198   197    1
    61   198   201    1
    62   193   192   ar
    63   159   158    2
    64   157   158    1
    65   188   187    1
    66   188   191    1
    67   175   174    2
    68    29    31   ar
    69    29    28   ar
    70   174   173    1
    71   196   194   ar
    72   158   164   am
    73    26    28   ar
    74     1     2    1
    75   192   191    1
    76   192   194   ar
    77   201   202    1
    78    66    65   ar
    79    66    64   ar
    80    65    63   ar
    81   167   166    2
    82   207   209   ar
    83   207   204   ar
    84   178   176    1
    85   164   165    1
    86   173   172    1
    87   173   176    1
    88    64    62   ar
    89   202   204   ar
    90   202   203   ar
    91     2     5    1
    92     2     3    1
    93   166   172   am
    94   166   165    1
    95    63    61   ar
    96   209   210   ar
    97   204   206   ar
    98     4     3    2
    99     5     6    1
   100   165   168    1
   101   176   177    1
   102    86    85    2
   103    87    85   am
   104   144   145    1
   105   147   146    2
   106   203   205   ar
   107    62    61   ar
   108   145   146    1
   109   145   148    1
   110    61    60    1
   111    85    84    1
   112   153   151   ar
   113   153   154   ar
   114   210   208   ar
   115   206   205   ar
   116   206   208   ar
   117    78    77    1
   118   151   149   ar
   119   171   169    1
   120   155   154    1
   121   168   169    1
   122   168   170    1
   123     6     7   ar
   124     6     8   ar
   125   154   152   ar
   126   149   148    1
   127   149   150   ar
   128     7     9   ar
   129    84    83    1
   130   152   150   ar
   131    60    57    1
   132     8    10   ar
   133    77    75   ar
   134    77    76   ar
   135    75    73   ar
   136    83    80    1
   137    76    74   ar
   138    57    56    1
   139    57    58    1
   140     9    11   ar
   141    10    11   ar
   142   102   101    2
   143    73    72   ar
   144    80    81    1
   145    80    79    1
   146    58    59    2
   147    74    72   ar
   148   101   100    1
   149   105   107   ar
   150   105   104   ar
   151   134   133    1
   152   107   109   ar
   153    82    81    2
   154    95    97   ar
   155    95    93   ar
   156   118   120   ar
   157   118   116   ar
   158    97    98   ar
   159   120   119   ar
   160    72    71    1
   161    79    69   am
   162   103   104    1
   163   103   100    1
   164   133   135    1
   165   133   130    1
   166   104   106   ar
   167   100    99    1
   168   116   115   ar
   169    92    93    1
   170    92    89    1
   171   109   108   ar
   172    93    94   ar
   173    98    96   ar
   174   119   117   ar
   175    69    70    2
   176    69    68    1
   177    71    68    1
   178   106   108   ar
   179   132   131    2
   180   130   131    1
   181   130   129    1
   182    67    68    1
   183    90    91    2
   184    90    89    1
   185   115   117   ar
   186   115   114    1
   187    94    96   ar
   188   127   125    1
   189    89    88    1
   190   125   126    1
   191   125   122    1
   192   126   128    1
   193   143   141    1
   194   124   123    2
   195   114   111    1
   196   121   122    1
   197   121   112   am
   198   122   123    1
   199   111   112    1
   200   111   110    1
   201   141   140    1
   202   112   113    2
   203   140   142    1
   204   140   137    1
   205   139   138    2
   206   137   138    1
   207   137   136    1
