@<TRIPOS>MOLECULE
tmp/1csbB00.pdb
 142 137 0 0 0
SMALL
GASTEIGER

@<TRIPOS>ATOM
      1  N         12.3400   -7.2370   38.0850 N.3    22  CYS22      -0.1221
      2  CA        13.3960   -6.3030   38.4660 C.3    22  CYS22       0.1808
      3  C         14.4740   -6.8670   39.3810 C.2    22  CYS22       0.2601
      4  O         15.4210   -6.1500   39.7590 O.2    22  CYS22      -0.2717
      5  CB        12.8240   -5.0700   39.1450 C.3    22  CYS22       0.0970
      6  SG        12.2840   -3.7410   38.0580 S.3    22  CYS22      -0.0800
      7  N         14.3200   -8.1190   39.7870 N.am   23  ASN23      -0.1960
      8  CA        15.3230   -8.6970   40.6340 C.3    23  ASN23       0.1819
      9  C         16.0580   -9.8920   40.0450 C.2    23  ASN23       0.2622
     10  O         16.5380  -10.7510   40.7750 O.2    23  ASN23      -0.2715
     11  CB        14.7710   -8.9940   42.0090 C.3    23  ASN23       0.1195
     12  CG        15.7320   -8.5820   43.0840 C.2    23  ASN23       0.2630
     13  OD1       16.7850   -9.2090   43.2700 O.2    23  ASN23      -0.2716
     14  ND2       15.4220   -7.4850   43.7600 N.am   23  ASN23      -0.0877
     15  N         16.1700   -9.9220   38.7220 N.am   24  GLY24      -0.1940
     16  CA        16.8730  -11.0100   38.0640 C.3    24  GLY24       0.2014
     17  C         16.0060  -11.8320   37.1280 C.2    24  GLY24       0.2639
     18  O         14.8080  -11.9810   37.3470 O.2    24  GLY24      -0.2714
     19  N         16.6240  -12.4080   36.1080 N.am   25  GLY25      -0.1954
     20  CA        15.8780  -13.2090   35.1620 C.3    25  GLY25       0.1869
     21  C         16.7810  -14.0390   34.2890 C.2    25  GLY25       0.2309
     22  O         18.0060  -13.8920   34.3310 O.2    25  GLY25      -0.2863
     23  N         17.5600  -14.9410   30.3450 N.3    27  PRO27      -0.2116
     24  CA        17.4690  -14.5130   28.9370 C.3    27  PRO27       0.1372
     25  C         16.9700  -15.6220   27.9920 C.2    27  PRO27       0.2244
     26  O         16.2600  -15.3520   27.0150 O.2    27  PRO27      -0.2868
     27  CB        18.9200  -14.1520   28.5970 C.3    27  PRO27       0.0268
     28  CG        19.5140  -13.7590   29.8990 C.3    27  PRO27       0.0207
     29  CD        18.9500  -14.8140   30.8250 C.3    27  PRO27       0.0892
     30  N         24.1300    5.7850   36.0150 N.3    61  HIS61      -0.1226
     31  CA        24.6630    4.5040   36.3840 C.3    61  HIS61       0.1752
     32  C         26.1420    4.5940   36.6560 C.2    61  HIS61       0.2596
     33  O         26.9410    4.3660   35.7560 O.2    61  HIS61      -0.2718
     34  CB        24.4310    3.4970   35.2640 C.3    61  HIS61       0.0759
     35  CG        22.9930    3.1640   35.0240 C.ar   61  HIS61       0.0818
     36  ND1       22.3980    2.0340   35.5370 N.ar   61  HIS61      -0.2268
     37  CD2       22.0570    3.7580   34.2490 C.ar   61  HIS61       0.1154
     38  CE1       21.1640    1.9380   35.0840 C.ar   61  HIS61       0.1986
     39  NE2       20.9300    2.9740   34.2990 N.ar   61  HIS61      -0.2212
     40  N         26.5040    4.9330   37.8930 N.am   62  HIS62      -0.1975
     41  CA        27.9020    4.9820   38.3530 C.3    62  HIS62       0.1656
     42  C         28.7660    6.0340   37.6860 C.2    62  HIS62       0.2291
     43  O         29.9970    5.9190   37.7110 O.2    62  HIS62      -0.2864
     44  CB        28.5980    3.6230   38.1680 C.3    62  HIS62       0.0771
     45  CG        27.7730    2.4300   38.5540 C.ar   62  HIS62       0.0820
     46  ND1       27.6720    1.9740   39.8510 N.ar   62  HIS62      -0.2267
     47  CD2       27.0250    1.5860   37.8000 C.ar   62  HIS62       0.1154
     48  CE1       26.8970    0.9040   39.8790 C.ar   62  HIS62       0.1986
     49  NE2       26.4900    0.6500   38.6480 N.ar   62  HIS62      -0.2212
     50  N         20.9620    6.1590   40.0170 N.3    70  CYS70      -0.1235
     51  CA        20.1990    4.9340   40.0790 C.3    70  CYS70       0.1677
     52  C         20.2080    4.4930   41.5250 C.2    70  CYS70       0.2270
     53  O         21.2100    4.6400   42.2230 O.2    70  CYS70      -0.2867
     54  CB        20.7970    3.8650   39.1720 C.3    70  CYS70       0.0956
     55  SG        20.8010    4.3670   37.4290 S.3    70  CYS70      -0.0801
     56  N         19.5840    1.1930   43.0870 N.3    72  GLY72      -0.1210
     57  CA        19.4390   -0.2520   43.1690 C.3    72  GLY72       0.1956
     58  C         18.2950   -0.7910   42.3310 C.2    72  GLY72       0.2611
     59  O         18.1170   -0.3960   41.1790 O.2    72  GLY72      -0.2717
     60  N         17.5220   -1.7080   42.8990 N.am   73  GLU73      -0.1979
     61  CA        16.4010   -2.2920   42.1740 C.3    73  GLU73       0.1602
     62  C         15.0570   -2.0140   42.8420 C.2    73  GLU73       0.2287
     63  O         14.8370   -2.3480   44.0090 O.2    73  GLU73      -0.2864
     64  CB        16.6420   -3.7870   41.9790 C.3    73  GLU73       0.0415
     65  CG        17.8380   -4.0630   41.0760 C.3    73  GLU73       0.1163
     66  CD        18.6170   -5.2970   41.4780 C.2    73  GLU73       0.3649
     67  OE1       18.1310   -6.4240   41.2410 O.co2  73  GLU73      -0.2457
     68  OE2       19.7250   -5.1330   42.0300 O.co2  73  GLU73      -0.2457
     69  N         25.7380  -13.0220   28.3930 N.3   124  ALA124     -0.1245
     70  CA        25.8420  -12.5880   29.7880 C.3   124  ALA124      0.1562
     71  C         27.2850  -12.7240   30.2590 C.2   124  ALA124      0.2260
     72  O         28.0340  -13.5530   29.7370 O.2   124  ALA124     -0.2867
     73  CB        24.9180  -13.4260   30.6790 C.3   124  ALA124      0.0290
     74  N         30.2210   -9.1710   36.0570 N.3   127  VAL127     -0.1245
     75  CA        30.6650   -7.8180   36.3490 C.3   127  VAL127      0.1561
     76  C         31.5100   -7.7770   37.6320 C.2   127  VAL127      0.2260
     77  O         31.0880   -8.2590   38.6770 O.2   127  VAL127     -0.2867
     78  CB        29.4430   -6.8460   36.5010 C.3   127  VAL127      0.0252
     79  CG1       29.9000   -5.4690   36.9860 C.3   127  VAL127      0.0019
     80  CG2       28.6960   -6.6960   35.1470 C.3   127  VAL127      0.0019
     81  N         32.7580   -1.0760   36.2720 N.3   132  LEU132     -0.1245
     82  CA        31.9770    0.1620   36.4620 C.3   132  LEU132      0.1561
     83  C         32.6710    1.4060   35.9450 C.2   132  LEU132      0.2260
     84  O         32.0440    2.2800   35.3260 O.2   132  LEU132     -0.2867
     85  CB        31.6460    0.3810   37.9420 C.3   132  LEU132      0.0270
     86  CG        30.9510   -0.7570   38.6870 C.3   132  LEU132      0.0019
     87  CD1       30.3890   -0.2440   39.9970 C.3   132  LEU132      0.0001
     88  CD2       29.8680   -1.2900   37.8190 C.3   132  LEU132      0.0001
     89  N         30.5400   -8.9350   41.3270 N.3   147  MET147     -0.1230
     90  CA        29.3310   -8.1890   41.6500 C.3   147  MET147      0.1702
     91  C         28.0490   -8.8780   41.2150 C.2   147  MET147      0.2593
     92  O         27.0020   -8.6520   41.8050 O.2   147  MET147     -0.2718
     93  CB        29.3660   -6.7970   41.0310 C.3   147  MET147      0.0401
     94  CG        30.6210   -6.0310   41.2860 C.3   147  MET147      0.0596
     95  SD        30.2310   -4.3240   41.6390 S.3   147  MET147     -0.1393
     96  CE        30.9310   -4.2290   43.3270 C.3   147  MET147      0.0692
     97  N         28.1050   -9.6700   40.1500 N.am  148  GLY148     -0.1942
     98  CA        26.8970  -10.3390   39.6950 C.3   148  GLY148      0.2014
     99  C         26.8660  -10.4220   38.1880 C.2   148  GLY148      0.2639
    100  O         27.7020   -9.8190   37.5220 O.2   148  GLY148     -0.2714
    101  N         25.8770  -11.1300   37.6580 N.am  149  GLY149     -0.1939
    102  CA        25.7650  -11.3020   36.2260 C.3   149  GLY149      0.2014
    103  C         25.1730  -10.1030   35.5280 C.2   149  GLY149      0.2639
    104  O         24.4340   -9.3230   36.1280 O.2   149  GLY149     -0.2714
    105  N         25.4640   -9.9750   34.2460 N.am  150  HIS150     -0.1959
    106  CA        24.9370   -8.8750   33.4770 C.3   150  HIS150      0.1787
    107  C         24.6350   -9.3240   32.0670 C.2   150  HIS150      0.2620
    108  O         25.5240   -9.8170   31.3860 O.2   150  HIS150     -0.2715
    109  CB        25.9240   -7.7140   33.4450 C.3   150  HIS150      0.0785
    110  CG        25.2880   -6.4130   33.0910 C.ar  150  HIS150      0.0821
    111  ND1       24.0800   -6.0150   33.6180 N.ar  150  HIS150     -0.2267
    112  CD2       25.6740   -5.4290   32.2480 C.ar  150  HIS150      0.1154
    113  CE1       23.7470   -4.8430   33.1140 C.ar  150  HIS150      0.1986
    114  NE2       24.6960   -4.4640   32.2810 N.ar  150  HIS150     -0.2212
    115  N         23.3750   -9.1790   31.6530 N.am  151  ALA151     -0.1977
    116  CA        22.9380   -9.5680   30.3080 C.3   151  ALA151      0.1597
    117  C         23.0530   -8.3720   29.3630 C.2   151  ALA151      0.2287
    118  O         22.5930   -7.2590   29.6750 O.2   151  ALA151     -0.2864
    119  CB        21.5240  -10.1000   30.3430 C.3   151  ALA151      0.0319
    120  N         22.8620    1.1560   30.1990 N.3   172  TRP172     -0.1241
    121  CA        23.1150    2.1200   31.2610 C.3   172  TRP172      0.1605
    122  C         23.1150    3.5370   30.6960 C.2   172  TRP172      0.2264
    123  O         23.8460    4.3900   31.1980 O.2   172  TRP172     -0.2867
    124  CB        24.4970    1.8400   31.8910 C.3   172  TRP172      0.0550
    125  CG        24.5440    0.6090   32.7710 C.ar  172  TRP172      0.0003
    126  CD1       23.5150   -0.2620   33.0230 C.ar  172  TRP172      0.0946
    127  CD2       25.6670    0.1360   33.5430 C.ar  172  TRP172      0.0152
    128  NE1       23.9230   -1.2300   33.9050 N.ar  172  TRP172     -0.2442
    129  CE2       25.2380   -1.0170   34.2370 C.ar  172  TRP172      0.0810
    130  CE3       26.9860    0.5680   33.7070 C.ar  172  TRP172      0.0012
    131  CZ2       26.0930   -1.7480   35.0900 C.ar  172  TRP172      0.0191
    132  CZ3       27.8350   -0.1530   34.5520 C.ar  172  TRP172      0.0001
    133  CH2       27.3800   -1.3000   35.2310 C.ar  172  TRP172      0.0015
    134  N         27.4090  -17.7990   27.7210 N.3   196  GLU196     -0.1245
    135  CA        25.9530  -17.7440   27.8860 C.3   196  GLU196      0.1567
    136  C         25.1950  -17.0430   26.7520 C.2   196  GLU196      0.2260
    137  O         24.2310  -16.3270   27.0150 O.2   196  GLU196     -0.2867
    138  CB        25.6350  -17.0380   29.2080 C.3   196  GLU196      0.0388
    139  CG        24.6850  -17.7840   30.0940 C.3   196  GLU196      0.1160
    140  CD        25.3250  -18.1420   31.4250 C.2   196  GLU196      0.3649
    141  OE1       26.0740  -19.1520   31.4730 O.co2 196  GLU196     -0.2457
    142  OE2       25.0830  -17.4050   32.4130 O.co2 196  GLU196     -0.2457
@<TRIPOS>BOND
     1   136   137    2
     2   136   135    1
     3    26    25    2
     4   134   135    1
     5   135   138    1
     6    25    24    1
     7    69    70    1
     8    27    24    1
     9    27    28    1
    10    24    23    1
    11   138   139    1
    12   117   118    2
    13   117   116    1
    14    72    71    2
    15    70    71    1
    16    70    73    1
    17    28    29    1
    18   139   140    1
    19   120   121    1
    20   116   119    1
    21   116   115    1
    22    23    29    1
    23   122   123    2
    24   122   121    1
    25   121   124    1
    26   108   107    2
    27   140   141   ar
    28   140   142   ar
    29   115   107   am
    30   124   125    1
    31   107   106    1
    32   112   114   ar
    33   112   110   ar
    34   114   113   ar
    35   125   126   ar
    36   125   127   ar
    37   126   128   ar
    38   110   109    1
    39   110   111   ar
    40   113   111   ar
    41   109   106    1
    42   106   105    1
    43   127   130   ar
    44   127   129   ar
    45   130   132   ar
    46   128   129   ar
    47   129   131   ar
    48   105   103   am
    49    37    39   ar
    50    37    35   ar
    51    21    22    2
    52    21    20    1
    53    39    38   ar
    54   132   133   ar
    55    35    34    1
    56    35    36   ar
    57    38    36   ar
    58   131   133   ar
    59    80    78    1
    60    20    19    1
    61    34    31    1
    62    84    83    2
    63   103   104    2
    64   103   102    1
    65    33    32    2
    66    83    82    1
    67    30    31    1
    68    74    75    1
    69    19    17   am
    70   102   101    1
    71    81    82    1
    72    75    78    1
    73    75    76    1
    74    31    32    1
    75    82    85    1
    76    78    79    1
    77    32    40   am
    78    17    18    2
    79    17    16    1
    80    55    54    1
    81   100    99    2
    82    76    77    2
    83   101    99   am
    84    42    43    2
    85    42    41    1
    86    47    45   ar
    87    47    49   ar
    88    88    86    1
    89    40    41    1
    90    85    86    1
    91     6     5    1
    92    16    15    1
    93     1     2    1
    94    44    41    1
    95    44    45    1
    96    99    98    1
    97     2     5    1
    98     2     3    1
    99    45    46   ar
   100    49    48   ar
   101    86    87    1
   102    15     9   am
   103    54    51    1
   104     3     4    2
   105     3     7   am
   106    98    97    1
   107     7     8    1
   108    46    48   ar
   109    50    51    1
   110     9     8    1
   111     9    10    2
   112    51    52    1
   113    97    91   am
   114     8    11    1
   115    93    94    1
   116    93    90    1
   117    65    66    1
   118    65    64    1
   119    59    58    2
   120    91    90    1
   121    91    92    2
   122    67    66   ar
   123    94    95    1
   124    89    90    1
   125    66    68   ar
   126    52    53    2
   127    95    96    1
   128    64    61    1
   129    11    12    1
   130    61    62    1
   131    61    60    1
   132    58    60   am
   133    58    57    1
   134    62    63    2
   135    12    13    2
   136    12    14   am
   137    56    57    1
