@<TRIPOS>MOLECULE
tmp/1csnA00.pdb
 191 178 0 0 0
SMALL
GASTEIGER

@<TRIPOS>ATOM
      1  N        -31.4360   47.3520   47.9430 N.3    13  ILE13      -0.1231
      2  CA       -30.4340   47.7870   46.9720 C.3    13  ILE13       0.1692
      3  C        -29.0750   47.1800   47.3110 C.2    13  ILE13       0.2593
      4  O        -28.1700   47.1640   46.4830 O.2    13  ILE13      -0.2718
      5  CB       -30.2930   49.3200   46.9300 C.3    13  ILE13       0.0266
      6  CG1      -29.9610   49.8610   48.3210 C.3    13  ILE13       0.0019
      7  CG2      -31.5640   49.9410   46.3780 C.3    13  ILE13       0.0020
      8  CD1      -29.6570   51.3400   48.3420 C.3    13  ILE13       0.0001
      9  N        -28.9430   46.6610   48.5230 N.am   14  GLY14      -0.1942
     10  CA       -27.6880   46.0670   48.9230 C.3    14  GLY14       0.2014
     11  C        -27.8610   45.1260   50.0950 C.2    14  GLY14       0.2639
     12  O        -28.8600   45.1780   50.8280 O.2    14  GLY14      -0.2714
     13  N        -26.8610   44.2820   50.2920 N.am   15  GLU15      -0.1963
     14  CA       -26.8670   43.3070   51.3620 C.3    15  GLU15       0.1733
     15  C        -25.4200   43.1620   51.8320 C.2    15  GLU15       0.2617
     16  O        -24.4790   43.3380   51.0480 O.2    15  GLU15      -0.2715
     17  CB       -27.3940   41.9790   50.8210 C.3    15  GLU15       0.0429
     18  CG       -27.9860   41.0510   51.8670 C.3    15  GLU15       0.1163
     19  CD       -28.6290   39.8120   51.2580 C.2    15  GLU15       0.3649
     20  OE1      -28.4180   39.5560   50.0540 O.co2  15  GLU15      -0.2457
     21  OE2      -29.3530   39.0930   51.9830 O.co2  15  GLU15      -0.2457
     22  N        -25.2420   42.9180   53.1240 N.am   16  GLY16      -0.1940
     23  CA       -23.9070   42.7580   53.6650 C.3    16  GLY16       0.2014
     24  C        -23.8550   41.4890   54.4810 C.2    16  GLY16       0.2640
     25  O        -24.6510   40.5750   54.2580 O.2    16  GLY16      -0.2714
     26  N        -22.9430   41.4380   55.4450 N.am   17  SER17      -0.1935
     27  CA       -22.8050   40.2670   56.3010 C.3    17  SER17       0.2055
     28  C        -24.0300   40.0800   57.1940 C.2    17  SER17       0.2643
     29  O        -24.5610   38.9740   57.2970 O.2    17  SER17      -0.2714
     30  CB       -21.5370   40.3770   57.1490 C.3    17  SER17       0.2130
     31  OG       -20.3910   40.4870   56.3220 O.3    17  SER17      -0.2179
     32  N        -24.4760   41.1630   57.8290 N.am   18  PHE18      -0.1959
     33  CA       -25.6460   41.1100   58.7120 C.3    18  PHE18       0.1771
     34  C        -26.7560   42.0950   58.3320 C.2    18  PHE18       0.2620
     35  O        -27.9170   41.9030   58.7070 O.2    18  PHE18      -0.2715
     36  CB       -25.2350   41.3850   60.1650 C.3    18  PHE18       0.0574
     37  CG       -24.3880   40.3080   60.7790 C.ar   18  PHE18      -0.0200
     38  CD1      -24.9790   39.2100   61.4020 C.ar   18  PHE18      -0.0042
     39  CD2      -22.9980   40.3960   60.7480 C.ar   18  PHE18      -0.0042
     40  CE1      -24.1990   38.2170   61.9850 C.ar   18  PHE18      -0.0003
     41  CE2      -22.2100   39.4070   61.3280 C.ar   18  PHE18      -0.0003
     42  CZ       -22.8130   38.3140   61.9470 C.ar   18  PHE18      -0.0000
     43  N        -26.3990   43.1480   57.6000 N.am   19  GLY19      -0.1954
     44  CA       -27.3820   44.1500   57.2400 C.3    19  GLY19       0.1869
     45  C        -27.9020   44.1630   55.8230 C.2    19  GLY19       0.2309
     46  O        -27.2590   43.6680   54.8940 O.2    19  GLY19      -0.2863
     47  N        -29.6660   46.8990   53.0000 N.3    21  ILE21      -0.1245
     48  CA       -29.8070   48.3120   52.7100 C.3    21  ILE21       0.1561
     49  C        -30.9500   48.4920   51.7150 C.2    21  ILE21       0.2260
     50  O        -31.0270   47.7830   50.7030 O.2    21  ILE21      -0.2867
     51  CB       -28.4720   48.9320   52.1610 C.3    21  ILE21       0.0252
     52  CG1      -27.4070   48.9900   53.2660 C.3    21  ILE21       0.0019
     53  CG2      -28.6920   50.3640   51.6910 C.3    21  ILE21       0.0019
     54  CD1      -26.7640   47.6900   53.5960 C.3    21  ILE21       0.0001
     55  N        -30.9660   56.1030   51.8630 N.3    34  ALA34      -0.1245
     56  CA       -30.6600   54.6910   51.9460 C.3    34  ALA34       0.1562
     57  C        -30.8170   54.3770   53.4250 C.2    34  ALA34       0.2260
     58  O        -30.3860   55.1510   54.2810 O.2    34  ALA34      -0.2867
     59  CB       -29.2420   54.4100   51.4900 C.3    34  ALA34       0.0290
     60  N        -30.1390   51.4910   56.2760 N.3    36  LYS36      -0.1245
     61  CA       -29.3870   50.3050   56.6260 C.3    36  LYS36       0.1561
     62  C        -30.0020   49.6640   57.8630 C.2    36  LYS36       0.2260
     63  O        -30.0840   50.2890   58.9230 O.2    36  LYS36      -0.2867
     64  CB       -27.9160   50.6750   56.8830 C.3    36  LYS36       0.0271
     65  CG       -26.9970   49.4930   57.1820 C.3    36  LYS36       0.0035
     66  CD       -25.5420   49.9310   57.2510 C.3    36  LYS36       0.0206
     67  CE       -24.5910   48.7380   57.3420 C.3    36  LYS36       0.1093
     68  NZ       -23.1600   49.1510   57.2420 N.3    36  LYS36      -0.1314
     69  N        -29.8600   46.7130   60.6120 N.3    38  GLU38      -0.1245
     70  CA       -28.9000   45.8470   61.2670 C.3    38  GLU38       0.1567
     71  C        -29.5600   45.1170   62.4160 C.2    38  GLU38       0.2260
     72  O        -30.1180   45.7440   63.3140 O.2    38  GLU38      -0.2867
     73  CB       -27.7330   46.6740   61.8060 C.3    38  GLU38       0.0388
     74  CG       -26.6870   47.0630   60.7720 C.3    38  GLU38       0.1160
     75  CD       -25.3970   46.2710   60.9210 C.2    38  GLU38       0.3649
     76  OE1      -25.0840   45.8310   62.0540 O.co2  38  GLU38      -0.2457
     77  OE2      -24.6910   46.0970   59.9040 O.co2  38  GLU38      -0.2457
     78  N        -28.9910   57.3680   55.6290 N.3    80  ILE80      -0.1231
     79  CA       -27.9140   58.1730   55.0720 C.3    80  ILE80       0.1692
     80  C        -28.2930   58.4930   53.6430 C.2    80  ILE80       0.2592
     81  O        -29.3310   58.0440   53.1600 O.2    80  ILE80      -0.2718
     82  CB       -26.5560   57.3950   55.0620 C.3    80  ILE80       0.0266
     83  CG1      -26.6830   56.1280   54.2180 C.3    80  ILE80       0.0019
     84  CG2      -26.1090   57.0450   56.4940 C.3    80  ILE80       0.0020
     85  CD1      -25.4150   55.3190   54.1440 C.3    80  ILE80       0.0001
     86  N        -27.4660   59.2730   52.9600 N.am   81  ASP81      -0.1960
     87  CA       -27.7540   59.6150   51.5750 C.3    81  ASP81       0.1840
     88  C        -27.7580   58.4130   50.6570 C.2    81  ASP81       0.2622
     89  O        -27.0010   57.4600   50.8580 O.2    81  ASP81      -0.2715
     90  CB       -26.7450   60.6220   51.0420 C.3    81  ASP81       0.1450
     91  CG       -26.9850   62.0090   51.5700 C.2    81  ASP81       0.3671
     92  OD1      -28.1340   62.4900   51.4640 O.co2  81  ASP81      -0.2456
     93  OD2      -26.0250   62.6120   52.0850 O.co2  81  ASP81      -0.2456
     94  N        -28.6060   58.4770   49.6390 N.am   82  LEU82      -0.1963
     95  CA       -28.6930   57.4160   48.6570 C.3    82  LEU82       0.1728
     96  C        -27.5900   57.6740   47.6440 C.2    82  LEU82       0.2616
     97  O        -27.5080   58.7640   47.0840 O.2    82  LEU82      -0.2715
     98  CB       -30.0420   57.4360   47.9420 C.3    82  LEU82       0.0311
     99  CG       -30.1570   56.3070   46.9190 C.3    82  LEU82       0.0022
    100  CD1      -30.2220   54.9610   47.6300 C.3    82  LEU82       0.0001
    101  CD2      -31.3670   56.5220   46.0550 C.3    82  LEU82       0.0001
    102  N        -26.7410   56.6750   47.4160 N.am   83  LEU83      -0.1963
    103  CA       -25.6470   56.8170   46.4690 C.3    83  LEU83       0.1728
    104  C        -25.8170   55.8730   45.2950 C.2    83  LEU83       0.2616
    105  O        -26.8150   55.1550   45.2150 O.2    83  LEU83      -0.2715
    106  CB       -24.3070   56.5890   47.1730 C.3    83  LEU83       0.0311
    107  CG       -24.0060   57.6520   48.2350 C.3    83  LEU83       0.0022
    108  CD1      -22.8220   57.2650   49.0770 C.3    83  LEU83       0.0001
    109  CD2      -23.7590   58.9830   47.5620 C.3    83  LEU83       0.0001
    110  N        -24.8590   55.9000   44.3720 N.am   84  GLY84      -0.1955
    111  CA       -24.9190   55.0410   43.2030 C.3    84  GLY84       0.1869
    112  C        -24.2390   53.6930   43.3990 C.2    84  GLY84       0.2309
    113  O        -24.0520   53.2380   44.5360 O.2    84  GLY84      -0.2863
    114  N        -21.3010   50.6480   43.4120 N.3    86  SER86      -0.1217
    115  CA       -19.9390   50.5730   43.9370 C.3    86  SER86       0.1889
    116  C        -18.9920   50.3580   42.7710 C.2    86  SER86       0.2288
    117  O        -19.4330   50.0430   41.6510 O.2    86  SER86      -0.2866
    118  CB       -19.7870   49.4050   44.9160 C.3    86  SER86       0.2089
    119  OG       -19.8520   48.1590   44.2420 O.3    86  SER86      -0.2183
    120  N        -19.3430   46.9390   41.3490 N.3    89  ASP89      -0.1239
    121  CA       -20.4610   46.8080   40.4080 C.3    89  ASP89       0.1674
    122  C        -20.0560   47.3430   39.0520 C.2    89  ASP89       0.2266
    123  O        -20.4080   46.7840   38.0070 O.2    89  ASP89      -0.2867
    124  CB       -21.6820   47.6170   40.8590 C.3    89  ASP89       0.1410
    125  CG       -22.2490   47.1560   42.1780 C.2    89  ASP89       0.3668
    126  OD1      -22.1250   45.9650   42.5200 O.co2  89  ASP89      -0.2456
    127  OD2      -22.8450   47.9990   42.8750 O.co2  89  ASP89      -0.2456
    128  N        -11.2320   48.5060   56.3720 N.3   126  ASP126     -0.1239
    129  CA       -12.0810   47.6380   55.5620 C.3   126  ASP126      0.1674
    130  C        -12.0350   48.0450   54.0940 C.2   126  ASP126      0.2266
    131  O        -13.0510   48.0730   53.4070 O.2   126  ASP126     -0.2867
    132  CB       -13.5270   47.6340   56.0960 C.3   126  ASP126      0.1410
    133  CG       -14.3640   46.4390   55.5790 C.2   126  ASP126      0.3668
    134  OD1      -13.8070   45.3370   55.3690 O.co2 126  ASP126     -0.2456
    135  OD2      -15.5940   46.6060   55.4030 O.co2 126  ASP126     -0.2456
    136  N        -12.0360   47.9430   50.3790 N.3   128  LYS128     -0.1245
    137  CA       -12.4980   47.0200   49.3430 C.3   128  LYS128      0.1561
    138  C        -13.3070   47.8380   48.3510 C.2   128  LYS128      0.2260
    139  O        -13.9250   48.8270   48.7350 O.2   128  LYS128     -0.2867
    140  CB       -13.3300   45.8710   49.9230 C.3   128  LYS128      0.0271
    141  CG       -14.5160   46.2670   50.7670 C.3   128  LYS128      0.0035
    142  CD       -15.2890   45.0200   51.1840 C.3   128  LYS128      0.0206
    143  CE       -16.1210   45.2810   52.4260 C.3   128  LYS128      0.1093
    144  NZ       -16.8430   44.0750   52.9250 N.3   128  LYS128     -0.1314
    145  N        -16.1020   47.4100   47.0960 N.3   130  ASP130     -0.1225
    146  CA       -17.5140   47.3980   47.4460 C.3   130  ASP130      0.1805
    147  C        -17.9220   48.5740   48.3110 C.2   130  ASP130      0.2597
    148  O        -19.0920   48.9510   48.3310 O.2   130  ASP130     -0.2718
    149  CB       -17.8540   46.1070   48.1910 C.3   130  ASP130      0.1424
    150  CG       -17.3940   44.8690   47.4490 C.2   130  ASP130      0.3668
    151  OD1      -16.1980   44.5160   47.5680 O.co2 130  ASP130     -0.2456
    152  OD2      -18.2230   44.2570   46.7420 O.co2 130  ASP130     -0.2456
    153  N        -16.9660   49.1310   49.0460 N.am  131  ASN131     -0.1974
    154  CA       -17.2550   50.2460   49.9390 C.3   131  ASN131      0.1688
    155  C        -17.0380   51.6270   49.3350 C.2   131  ASN131      0.2292
    156  O        -17.1740   52.6290   50.0240 O.2   131  ASN131     -0.2864
    157  CB       -16.4750   50.0970   51.2490 C.3   131  ASN131      0.1181
    158  CG       -16.9610   48.9200   52.0940 C.2   131  ASN131      0.2629
    159  OD1      -17.8380   48.1460   51.6780 O.2   131  ASN131     -0.2716
    160  ND2      -16.4100   48.7880   53.2920 N.am  131  ASN131     -0.0877
    161  N        -18.4640   53.9880   46.4350 N.3   133  LEU133     -0.1245
    162  CA       -19.6040   54.1570   45.5290 C.3   133  LEU133      0.1561
    163  C        -19.5820   55.4990   44.8230 C.2   133  LEU133      0.2260
    164  O        -19.0540   56.4670   45.3540 O.2   133  LEU133     -0.2867
    165  CB       -20.9260   54.0700   46.3100 C.3   133  LEU133      0.0270
    166  CG       -21.0950   53.1950   47.5560 C.3   133  LEU133      0.0019
    167  CD1      -22.5360   53.2730   48.0090 C.3   133  LEU133      0.0001
    168  CD2      -20.7400   51.7570   47.2810 C.3   133  LEU133      0.0001
    169  N        -18.4860   54.4880   52.1200 N.3   148  VAL148     -0.1231
    170  CA       -19.5610   54.1320   53.0470 C.3   148  VAL148      0.1692
    171  C        -19.0490   52.9810   53.9150 C.2   148  VAL148      0.2592
    172  O        -17.9210   52.5160   53.7360 O.2   148  VAL148     -0.2718
    173  CB       -20.8620   53.6790   52.3120 C.3   148  VAL148      0.0266
    174  CG1      -21.3600   54.7770   51.4060 C.3   148  VAL148      0.0020
    175  CG2      -20.6250   52.3960   51.5170 C.3   148  VAL148      0.0020
    176  N        -19.8670   52.5490   54.8670 N.am  149  ASP149     -0.1974
    177  CA       -19.5210   51.4360   55.7480 C.3   149  ASP149      0.1709
    178  C        -18.3030   51.7120   56.6520 C.2   149  ASP149      0.2293
    179  O        -17.1640   51.3880   56.3210 O.2   149  ASP149     -0.2864
    180  CB       -19.3360   50.1590   54.9060 C.3   149  ASP149      0.1436
    181  CG       -19.2580   48.8940   55.7440 C.2   149  ASP149      0.3671
    182  OD1      -19.3530   48.9540   56.9960 O.co2 149  ASP149     -0.2456
    183  OD2      -19.0960   47.8220   55.1270 O.co2 149  ASP149     -0.2456
    184  N        -15.8110   49.1440   60.8430 N.3   152  MET152     -0.1245
    185  CA       -14.5530   48.6850   61.4220 C.3   152  MET152      0.1570
    186  C        -13.5420   49.7790   61.7370 C.2   152  MET152      0.2261
    187  O        -12.3830   49.4790   62.0070 O.2   152  MET152     -0.2867
    188  CB       -13.8980   47.6490   60.5050 C.3   152  MET152      0.0387
    189  CG       -14.4920   46.2590   60.5950 C.3   152  MET152      0.0595
    190  SD       -13.5750   45.0800   59.5740 S.3   152  MET152     -0.1393
    191  CE       -14.8320   44.5820   58.4150 C.3   152  MET152      0.0692
@<TRIPOS>BOND
     1   123   122    2
     2   122   121    1
     3   121   124    1
     4   121   120    1
     5   124   125    1
     6   117   116    2
     7   125   126   ar
     8   125   127   ar
     9   116   115    1
    10   111   112    1
    11   111   110    1
    12   112   113    2
    13   114   115    1
    14   115   118    1
    15   119   118    1
    16   110   104   am
    17   163   164    2
    18   163   162    1
    19   105   104    2
    20   104   103    1
    21   162   165    1
    22   162   161    1
    23   101    99    1
    24   165   166    1
    25     7     5    1
    26   103   106    1
    27   103   102    1
    28     4     3    2
    29   152   150   ar
    30    99   100    1
    31    99    98    1
    32     5     2    1
    33     5     6    1
    34     2     3    1
    35     2     1    1
    36    97    96    2
    37   145   146    1
    38   106   107    1
    39   168   166    1
    40     3     9   am
    41   102    96   am
    42   146   149    1
    43   146   147    1
    44   150   151   ar
    45   150   149    1
    46   166   167    1
    47   109   107    1
    48    96    95    1
    49    98    95    1
    50   107   108    1
    51   147   148    2
    52   147   153   am
    53     6     8    1
    54   138   139    2
    55   138   137    1
    56     9    10    1
    57    95    94    1
    58    10    11    1
    59   153   154    1
    60   155   154    1
    61   155   156    2
    62   137   140    1
    63   137   136    1
    64    94    88   am
    65   140   141    1
    66   154   157    1
    67    20    19   ar
    68    11    13   am
    69    11    12    2
    70    13    14    1
    71    88    89    2
    72    88    87    1
    73    50    49    2
    74   141   142    1
    75    17    14    1
    76    17    18    1
    77    90    91    1
    78    90    87    1
    79    16    15    2
    80   142   143    1
    81   157   158    1
    82    19    18    1
    83    19    21   ar
    84    14    15    1
    85   174   173    1
    86    92    91   ar
    87    59    56    1
    88   175   173    1
    89    91    93   ar
    90    87    86    1
    91   159   158    2
    92    53    51    1
    93    49    48    1
    94    15    22   am
    95    55    56    1
    96    56    57    1
    97   158   160   am
    98   169   170    1
    99    51    48    1
   100    51    52    1
   101   173   170    1
   102   143   144    1
   103    48    47    1
   104    86    80   am
   105   170   171    1
   106    22    23    1
   107    81    80    2
   108    52    54    1
   109   131   130    2
   110    57    58    2
   111    80    79    1
   112    23    24    1
   113   172   171    2
   114   171   176   am
   115   130   129    1
   116    85    83    1
   117    83    82    1
   118    25    24    2
   119    24    26   am
   120   176   177    1
   121    46    45    2
   122   180   181    1
   123   180   177    1
   124    82    79    1
   125    82    84    1
   126    79    78    1
   127   183   181   ar
   128   134   133   ar
   129   135   133   ar
   130    26    27    1
   131   129   132    1
   132   129   128    1
   133   133   132    1
   134   181   182   ar
   135   177   178    1
   136    45    44    1
   137    60    61    1
   138    27    30    1
   139    27    28    1
   140   179   178    2
   141    31    30    1
   142    61    64    1
   143    61    62    1
   144    64    65    1
   145    65    66    1
   146    28    29    2
   147    28    32   am
   148    44    43    1
   149    68    67    1
   150    66    67    1
   151    43    34   am
   152    32    33    1
   153    62    63    2
   154    34    35    2
   155    34    33    1
   156   191   190    1
   157    33    36    1
   158   190   189    1
   159    77    75   ar
   160    36    37    1
   161   188   189    1
   162   188   185    1
   163    69    70    1
   164    39    37   ar
   165    39    41   ar
   166    74    75    1
   167    74    73    1
   168    37    38   ar
   169   184   185    1
   170    75    76   ar
   171    70    73    1
   172    70    71    1
   173    41    42   ar
   174    38    40   ar
   175   185   186    1
   176   186   187    2
   177    42    40   ar
   178    71    72    2
