@<TRIPOS>MOLECULE
tmp/1cssA00.pdb
 126 121 0 0 0
SMALL
GASTEIGER

@<TRIPOS>ATOM
      1  N         14.3700  -14.1990   -7.7710 N.3    56  LEU56      -0.1245
      2  CA        15.5270  -14.2760   -6.8850 C.3    56  LEU56       0.1561
      3  C         15.8190  -15.7120   -6.4560 C.2    56  LEU56       0.2260
      4  O         14.9250  -16.4780   -6.0580 O.2    56  LEU56      -0.2867
      5  CB        15.1360  -13.4450   -5.6270 C.3    56  LEU56       0.0270
      6  CG        16.1200  -13.3250   -4.4620 C.3    56  LEU56       0.0019
      7  CD1       17.4160  -12.6210   -4.8760 C.3    56  LEU56       0.0001
      8  CD2       15.4280  -12.6010   -3.3150 C.3    56  LEU56       0.0001
      9  N         13.2750   -6.7630   -7.4110 N.3   236  HIS236     -0.1226
     10  CA        13.8760   -7.8350   -6.6390 C.3   236  HIS236      0.1752
     11  C         12.8120   -8.8950   -6.5190 C.2   236  HIS236      0.2595
     12  O         12.4570   -9.3010   -5.4320 O.2   236  HIS236     -0.2718
     13  CB        14.4570   -7.3570   -5.2920 C.3   236  HIS236      0.0759
     14  CG        15.6440   -8.1680   -4.8040 C.ar  236  HIS236      0.0818
     15  ND1       15.6410   -8.7440   -3.5580 N.ar  236  HIS236     -0.2268
     16  CD2       16.8480   -8.4750   -5.3960 C.ar  236  HIS236      0.1154
     17  CE1       16.8280   -9.3700   -3.4080 C.ar  236  HIS236      0.1986
     18  NE2       17.5740   -9.2340   -4.4870 N.ar  236  HIS236     -0.2212
     19  N         12.2860   -9.3210   -7.6560 N.am  237  GLU237     -0.1979
     20  CA        11.2130  -10.2980   -7.6710 C.3   237  GLU237      0.1602
     21  C          9.9500   -9.7220   -7.1000 C.2   237  GLU237      0.2287
     22  O          9.9180   -8.5590   -6.7840 O.2   237  GLU237     -0.2864
     23  CB        11.5130  -11.7760   -7.3130 C.3   237  GLU237      0.0415
     24  CG        11.5460  -12.1050   -5.8170 C.3   237  GLU237      0.1163
     25  CD        11.3250  -13.6010   -5.5300 C.2   237  GLU237      0.3649
     26  OE1       11.8920  -14.4360   -6.3960 O.co2 237  GLU237     -0.2457
     27  OE2       10.6170  -13.9490   -4.5910 O.co2 237  GLU237     -0.2457
     28  N          7.8360  -10.7380   -4.2770 N.3   239  GLY239     -0.1210
     29  CA         7.4030  -10.8140   -2.8590 C.3   239  GLY239      0.1956
     30  C          7.9300   -9.8700   -1.8620 C.2   239  GLY239      0.2612
     31  O          7.5520   -9.9560   -0.7120 O.2   239  GLY239     -0.2717
     32  N          8.8130   -9.0020   -2.2950 N.am  240  ASN240     -0.1960
     33  CA         9.3680   -8.0170   -1.4090 C.3   240  ASN240      0.1819
     34  C          8.2360   -7.0450   -1.1390 C.2   240  ASN240      0.2621
     35  O          7.3170   -6.9300   -1.9300 O.2   240  ASN240     -0.2715
     36  CB        10.6400   -7.3700   -1.9630 C.3   240  ASN240      0.1195
     37  CG        10.3620   -6.5200   -3.1560 C.2   240  ASN240      0.2630
     38  OD1        9.8820   -5.4220   -2.9480 O.2   240  ASN240     -0.2716
     39  ND2       10.8760   -6.8690   -4.3190 N.am  240  ASN240     -0.0877
     40  N          8.2640   -6.3900    0.0210 N.am  241  VAL241     -0.1977
     41  CA         7.1950   -5.5050    0.4600 C.3   241  VAL241      0.1596
     42  C          6.6680   -4.4610   -0.5420 C.2   241  VAL241      0.2287
     43  O          5.4490   -4.3770   -0.7160 O.2   241  VAL241     -0.2864
     44  CB         7.4280   -4.9270    1.8330 C.3   241  VAL241      0.0276
     45  CG1        6.3340   -3.9380    2.1390 C.3   241  VAL241      0.0022
     46  CG2        7.3660   -6.0450    2.8720 C.3   241  VAL241      0.0022
     47  N         12.4680   -2.6850    5.5600 N.3   272  HIS272     -0.1241
     48  CA        12.5700   -2.7350    4.0830 C.3   272  HIS272      0.1621
     49  C         13.6020   -1.6920    3.6460 C.2   272  HIS272      0.2264
     50  O         14.6950   -1.5980    4.1520 O.2   272  HIS272     -0.2867
     51  CB        11.1710   -2.5910    3.4390 C.3   272  HIS272      0.0745
     52  CG        11.0580   -2.9300    1.9970 C.ar  272  HIS272      0.0817
     53  ND1       12.1100   -3.5300    1.2940 N.ar  272  HIS272     -0.2268
     54  CD2       10.0720   -2.7120    1.1530 C.ar  272  HIS272      0.1154
     55  CE1       11.7290   -3.7290    0.0450 C.ar  272  HIS272      0.1986
     56  NE2       10.5010   -3.2160   -0.0720 N.ar  272  HIS272     -0.2212
     57  N         18.0950  -11.3330    5.4630 N.3   318  HIS318     -0.1226
     58  CA        17.1940  -11.2970    4.3170 C.3   318  HIS318      0.1752
     59  C         16.0650  -12.3070    4.4230 C.2   318  HIS318      0.2596
     60  O         16.2090  -13.3910    4.9950 O.2   318  HIS318     -0.2718
     61  CB        17.9410  -11.4620    2.9600 C.3   318  HIS318      0.0759
     62  CG        17.2300  -10.8180    1.8090 C.ar  318  HIS318      0.0818
     63  ND1       16.3840  -11.5700    0.9680 N.ar  318  HIS318     -0.2268
     64  CD2       17.2190   -9.5160    1.3750 C.ar  318  HIS318      0.1154
     65  CE1       15.9180  -10.7190    0.0420 C.ar  318  HIS318      0.1986
     66  NE2       16.4120   -9.4920    0.2500 N.ar  318  HIS318     -0.2212
     67  N         14.8960  -12.0090    3.8590 N.am  319  ALA319     -0.1966
     68  CA        13.8280  -12.9720    3.9600 C.3   319  ALA319      0.1728
     69  C         14.0750  -14.1780    3.0630 C.2   319  ALA319      0.2616
     70  O         13.6430  -15.2690    3.3540 O.2   319  ALA319     -0.2715
     71  CB        12.5420  -12.3350    3.5100 C.3   319  ALA319      0.0334
     72  N         14.8010  -14.0050    1.9890 N.am  320  VAL320     -0.1977
     73  CA        15.0530  -15.0940    1.0570 C.3   320  VAL320      0.1596
     74  C         16.5080  -15.4290    0.7660 C.2   320  VAL320      0.2287
     75  O         16.8740  -16.6240    0.6760 O.2   320  VAL320     -0.2864
     76  CB        14.4030  -14.6130   -0.2490 C.3   320  VAL320      0.0276
     77  CG1       14.6590  -15.5720   -1.4170 C.3   320  VAL320      0.0022
     78  CG2       12.8840  -14.3650   -0.0950 C.3   320  VAL320      0.0022
     79  N         24.1500   -7.5910   -4.8490 N.3   327  ARG327     -0.1245
     80  CA        24.0530   -6.1350   -4.9730 C.3   327  ARG327      0.1563
     81  C         25.0410   -5.5590   -3.9670 C.2   327  ARG327      0.2260
     82  O         25.5650   -4.4600   -4.1780 O.2   327  ARG327     -0.2867
     83  CB        22.6410   -5.6560   -4.5820 C.3   327  ARG327      0.0307
     84  CG        21.6720   -6.1150   -5.6710 C.3   327  ARG327      0.0489
     85  CD        20.2090   -5.7990   -5.3360 C.3   327  ARG327      0.2205
     86  NE        19.8700   -6.4430   -4.0400 N.pl3 327  ARG327     -0.0865
     87  CZ        18.7240   -6.2210   -3.3810 C.cat 327  ARG327      0.5346
     88  NH1       17.7700   -5.4300   -3.8770 N.pl3 327  ARG327      0.1354
     89  NH2       18.4560   -6.8180   -2.2100 N.pl3 327  ARG327      0.1354
     90  N         23.0590   -7.3710    3.1570 N.3   371  ASN371     -0.1225
     91  CA        22.1190   -7.0980    2.0990 C.3   371  ASN371      0.1785
     92  C         22.5300   -5.7760    1.4610 C.2   371  ASN371      0.2597
     93  O         23.4520   -5.0980    1.9280 O.2   371  ASN371     -0.2718
     94  CB        20.6700   -7.2030    2.5630 C.3   371  ASN371      0.1169
     95  CG        20.3520   -6.1730    3.6540 C.2   371  ASN371      0.2627
     96  OD1       20.5510   -4.9470    3.4030 O.2   371  ASN371     -0.2716
     97  ND2       19.7360   -6.5790    4.7860 N.am  371  ASN371     -0.0877
     98  N         21.9020   -5.3890    0.3460 N.am  372  VAL372     -0.1980
     99  CA        22.1660   -4.2030   -0.4180 C.3   372  VAL372      0.1595
    100  C         22.2570   -2.9280    0.4380 C.2   372  VAL372      0.2287
    101  O         23.0800   -2.0230    0.2260 O.2   372  VAL372     -0.2864
    102  CB        21.1240   -4.0750   -1.5590 C.3   372  VAL372      0.0276
    103  CG1       19.7200   -3.7710   -0.9760 C.3   372  VAL372      0.0022
    104  CG2       21.5150   -3.0120   -2.5790 C.3   372  VAL372      0.0022
    105  N         16.2050    4.9400   -3.5820 N.3   395  PHE395     -0.1241
    106  CA        15.8210    3.5430   -3.7580 C.3   395  PHE395      0.1605
    107  C         14.4350    3.5470   -4.3750 C.2   395  PHE395      0.2264
    108  O         14.1840    2.7740   -5.2590 O.2   395  PHE395     -0.2867
    109  CB        15.7910    2.9040   -2.3360 C.3   395  PHE395      0.0534
    110  CG        15.7210    1.4140   -2.2730 C.ar  395  PHE395     -0.0203
    111  CD1       15.2680    0.5830   -3.3020 C.ar  395  PHE395     -0.0042
    112  CD2       16.1290    0.8110   -1.0850 C.ar  395  PHE395     -0.0042
    113  CE1       15.2360   -0.8070   -3.1720 C.ar  395  PHE395     -0.0003
    114  CE2       16.1020   -0.5720   -0.9240 C.ar  395  PHE395     -0.0003
    115  CZ        15.6480   -1.3820   -1.9640 C.ar  395  PHE395     -0.0000
    116  N         13.2140    1.7070   -7.8090 N.3   399  ARG399     -0.1245
    117  CA        12.1660    0.6780   -7.6730 C.3   399  ARG399      0.1563
    118  C         11.0040    0.8040   -8.6570 C.2   399  ARG399      0.2260
    119  O         10.3800   -0.1950   -9.0330 O.2   399  ARG399     -0.2867
    120  CB        11.6990    0.4540   -6.2440 C.3   399  ARG399      0.0307
    121  CG        10.8880   -0.8650   -6.0300 C.3   399  ARG399      0.0489
    122  CD        11.4400   -2.1880   -6.5880 C.3   399  ARG399      0.2205
    123  NE        12.8110   -2.6280   -6.2810 N.pl3 399  ARG399     -0.0865
    124  CZ        13.1750   -3.3960   -5.2070 C.cat 399  ARG399      0.5346
    125  NH1       12.2900   -3.7830   -4.2790 N.pl3 399  ARG399      0.1354
    126  NH2       14.4410   -3.7500   -5.0430 N.pl3 399  ARG399      0.1354
@<TRIPOS>BOND
     1   119   118    2
     2   118   117    1
     3   116   117    1
     4     1     2    1
     5   117   120    1
     6    20    19    1
     7    20    23    1
     8    20    21    1
     9    19    11   am
    10     9    10    1
    11    23    24    1
    12    21    22    2
    13     2     3    1
    14     2     5    1
    15    10    11    1
    16    10    13    1
    17   122   123    1
    18   122   121    1
    19    11    12    2
    20     3     4    2
    21    26    25   ar
    22   123   124    2
    23   120   121    1
    24    24    25    1
    25    84    85    1
    26    84    83    1
    27     5     6    1
    28    25    27   ar
    29    16    14   ar
    30    16    18   ar
    31    85    86    1
    32    13    14    1
    33   108   107    2
    34   124   126    1
    35   124   125    1
    36    80    79    1
    37    80    83    1
    38    80    81    1
    39     7     6    1
    40    14    15   ar
    41    18    17   ar
    42     6     8    1
    43   107   106    1
    44    39    37   am
    45    28    29    1
    46    82    81    2
    47    86    87    2
    48    88    87    1
    49   106   105    1
    50   106   109    1
    51    15    17   ar
    52    87    89    1
    53   111   113   ar
    54   111   110   ar
    55   113   115   ar
    56    37    38    2
    57    37    36    1
    58    29    30    1
    59   104   102    1
    60   109   110    1
    61    32    30   am
    62    32    33    1
    63   110   112   ar
    64   115   114   ar
    65    36    33    1
    66    35    34    2
    67    30    31    2
    68   102   103    1
    69   102    99    1
    70    77    76    1
    71    33    34    1
    72    34    40   am
    73   112   114   ar
    74    43    42    2
    75    42    41    1
    76    99    98    1
    77    99   100    1
    78    76    78    1
    79    76    73    1
    80    56    55   ar
    81    56    54   ar
    82    40    41    1
    83    65    66   ar
    84    65    63   ar
    85    55    53   ar
    86   101   100    2
    87    66    64   ar
    88    98    92   am
    89    41    44    1
    90    75    74    2
    91    74    73    1
    92    63    62   ar
    93    73    72    1
    94    54    52   ar
    95    53    52   ar
    96    64    62   ar
    97    92    93    2
    98    92    91    1
    99    62    61    1
   100    44    45    1
   101    44    46    1
   102    72    69   am
   103    52    51    1
   104    91    94    1
   105    91    90    1
   106    94    95    1
   107    61    58    1
   108    69    70    2
   109    69    68    1
   110    96    95    2
   111    51    48    1
   112    71    68    1
   113    49    48    1
   114    49    50    2
   115    95    97   am
   116    67    68    1
   117    67    59   am
   118    48    47    1
   119    58    59    1
   120    58    57    1
   121    59    60    2
