@<TRIPOS>MOLECULE
tmp/1cszA00.pdb
 167 161 0 0 0
SMALL
GASTEIGER

@<TRIPOS>ATOM
      1  N          6.5670   -3.8730    8.7540 N.3    21  SER21      -0.1202
      2  CA         6.3250   -2.7110    9.5900 C.3    21  SER21       0.2020
      3  C          5.9690   -1.5110    8.7190 C.2    21  SER21       0.2618
      4  O          4.8300   -1.0660    8.6370 O.2    21  SER21      -0.2717
      5  CB         7.5720   -2.4150   10.4180 C.3    21  SER21       0.2103
      6  OG         7.3640   -1.2990   11.2460 O.3    21  SER21      -0.2182
      7  N          7.0410   -1.0370    8.0860 N.am   22  ARG22      -0.1979
      8  CA         6.9290    0.1180    7.2120 C.3    22  ARG22       0.1597
      9  C          8.3160    0.3720    6.6230 C.2    22  ARG22       0.2287
     10  O          8.4900    0.6870    5.4520 O.2    22  ARG22      -0.2864
     11  CB         6.4540    1.3290    8.0120 C.3    22  ARG22       0.0334
     12  CG         6.1720    2.5250    7.1050 C.3    22  ARG22       0.0492
     13  CD         6.0790    3.8300    7.8980 C.3    22  ARG22       0.2205
     14  NE         7.4080    4.2980    8.2620 N.pl3  22  ARG22      -0.0865
     15  CZ         7.8990    4.0120    9.4870 C.cat  22  ARG22       0.5346
     16  NH1        7.1800    3.3110   10.3590 N.pl3  22  ARG22       0.1354
     17  NH2        9.1140    4.4360    9.8230 N.pl3  22  ARG22       0.1354
     18  N         10.2690   -0.7100    3.3310 N.3    26  GLU26      -0.1245
     19  CA        10.9730    0.3590    2.6670 C.3    26  GLU26       0.1567
     20  C         12.4180   -0.0610    2.3500 C.2    26  GLU26       0.2260
     21  O         13.0650    0.4870    1.4650 O.2    26  GLU26      -0.2867
     22  CB        10.9160    1.5740    3.5880 C.3    26  GLU26       0.0388
     23  CG        12.2750    2.2440    3.7470 C.3    26  GLU26       0.1160
     24  CD        12.2000    3.3310    4.8230 C.2    26  GLU26       0.3649
     25  OE1       11.0920    3.7450    5.1630 O.co2  26  GLU26      -0.2457
     26  OE2       13.2490    3.7480    5.3100 O.co2  26  GLU26      -0.2457
     27  N          0.3220   -1.9600    2.9510 N.3    42  ARG42      -0.1245
     28  CA         0.3990   -2.6790    4.2100 C.3    42  ARG42       0.1563
     29  C         -0.9010   -2.4820    4.9870 C.2    42  ARG42       0.2260
     30  O         -1.4250   -1.3800    5.1000 O.2    42  ARG42      -0.2867
     31  CB         1.5870   -2.1610    5.0190 C.3    42  ARG42       0.0307
     32  CG         1.5450   -2.6660    6.4620 C.3    42  ARG42       0.0489
     33  CD         2.6560   -2.0450    7.3080 C.3    42  ARG42       0.2205
     34  NE         2.5090   -2.4420    8.6970 N.pl3  42  ARG42      -0.0865
     35  CZ         1.4940   -1.9240    9.4130 C.cat  42  ARG42       0.5346
     36  NH1        0.6550   -1.0580    8.8500 N.pl3  42  ARG42       0.1354
     37  NH2        1.3300   -2.2770   10.6840 N.pl3  42  ARG42       0.1354
     38  N         -3.8130    1.3930   11.3930 N.3    49  SER49      -0.1202
     39  CA        -4.2460    1.8420   10.0810 C.3    49  SER49       0.2020
     40  C         -3.3030    1.2890    9.0120 C.2    49  SER49       0.2619
     41  O         -2.2090    0.8160    9.2940 O.2    49  SER49      -0.2717
     42  CB        -4.2640    3.3680   10.0440 C.3    49  SER49       0.2103
     43  OG        -2.9760    3.8860   10.2600 O.3    49  SER49      -0.2182
     44  N         -3.8100    1.3820    7.7700 N.am   50  TYR50      -0.1961
     45  CA        -3.0160    0.8930    6.6510 C.3    50  TYR50       0.1771
     46  C         -2.2180    2.0610    6.0730 C.2    50  TYR50       0.2619
     47  O         -2.3700    3.2040    6.4850 O.2    50  TYR50      -0.2715
     48  CB        -3.9350    0.2930    5.5760 C.3    50  TYR50       0.0574
     49  CG        -4.9300   -0.6800    6.1540 C.ar   50  TYR50      -0.0198
     50  CD1       -4.6620   -1.3490    7.3750 C.ar   50  TYR50      -0.0009
     51  CD2       -6.1540   -0.9270    5.4860 C.ar   50  TYR50      -0.0009
     52  CE1       -5.6060   -2.2500    7.9190 C.ar   50  TYR50       0.0417
     53  CE2       -7.0980   -1.8280    6.0300 C.ar   50  TYR50       0.0417
     54  CZ        -6.8230   -2.4890    7.2460 C.ar   50  TYR50       0.1957
     55  OH        -7.7450   -3.3680    7.7780 O.3    50  TYR50      -0.2866
     56  N         -1.3590    1.7060    5.0990 N.am   51  ALA51      -0.1977
     57  CA        -0.5660    2.7580    4.4840 C.3    51  ALA51       0.1597
     58  C          0.1700    2.2300    3.2510 C.2    51  ALA51       0.2287
     59  O          0.8350    1.2020    3.2750 O.2    51  ALA51      -0.2864
     60  CB         0.4230    3.3210    5.5010 C.3    51  ALA51       0.0319
     61  N          2.9470    2.1450    0.5010 N.3    53  CYS53      -0.1235
     62  CA         4.3730    2.4340    0.5000 C.3    53  CYS53       0.1677
     63  C          4.9760    2.1300   -0.8720 C.2    53  CYS53       0.2270
     64  O          5.0410    0.9890   -1.3100 O.2    53  CYS53      -0.2867
     65  CB         5.0580    1.5920    1.5730 C.3    53  CYS53       0.0956
     66  SG         4.3530    1.8410    3.2220 S.3    53  CYS53      -0.0801
     67  N         11.8190    6.3380   -0.5840 N.3    60  VAL60      -0.1231
     68  CA        10.6300    5.5840   -0.2670 C.3    60  VAL60       0.1692
     69  C          9.6160    6.4990    0.3930 C.2    60  VAL60       0.2592
     70  O          9.9410    7.3930    1.1640 O.2    60  VAL60      -0.2718
     71  CB        10.9720    4.4370    0.6740 C.3    60  VAL60       0.0266
     72  CG1       10.9820    4.9330    2.1140 C.3    60  VAL60       0.0020
     73  CG2        9.9550    3.3080    0.5320 C.3    60  VAL60       0.0020
     74  N          8.3700    6.1860    0.0480 N.am   61  LEU61      -0.1966
     75  CA         7.2850    6.9650    0.5910 C.3    61  LEU61       0.1728
     76  C          6.2520    6.0800    1.2280 C.2    61  LEU61       0.2616
     77  O          6.2060    4.8680    1.0510 O.2    61  LEU61      -0.2715
     78  CB         6.6410    7.7960   -0.5080 C.3    61  LEU61       0.0311
     79  CG         7.7100    8.4920   -1.3230 C.3    61  LEU61       0.0022
     80  CD1        7.0900    9.4130   -2.3680 C.3    61  LEU61       0.0001
     81  CD2        8.6090    9.2680   -0.3760 C.3    61  LEU61       0.0001
     82  N          5.4220    6.8000    1.9750 N.am   62  HIS62      -0.1959
     83  CA         4.3500    6.1180    2.6760 C.3    62  HIS62       0.1787
     84  C          3.1220    7.0300    2.6980 C.2    62  HIS62       0.2620
     85  O          3.2230    8.2360    2.8420 O.2    62  HIS62      -0.2715
     86  CB         4.7950    5.7620    4.1020 C.3    62  HIS62       0.0785
     87  CG         6.1350    5.0490    4.0690 C.ar   62  HIS62       0.0821
     88  ND1        6.2880    3.7090    4.1590 N.ar   62  HIS62      -0.2267
     89  CD2        7.4120    5.6250    3.9320 C.ar   62  HIS62       0.1154
     90  CE1        7.6110    3.4710    4.0800 C.ar   62  HIS62       0.1986
     91  NE2        8.3080    4.6120    3.9420 N.ar   62  HIS62      -0.2212
     92  N          1.9610    6.3780    2.5290 N.am   63  TYR63      -0.1960
     93  CA         0.7330    7.1360    2.5310 C.3    63  TYR63       0.1771
     94  C         -0.2730    6.4470    3.4450 C.2    63  TYR63       0.2619
     95  O         -0.6500    5.3060    3.2280 O.2    63  TYR63      -0.2715
     96  CB         0.1820    7.1770    1.1140 C.3    63  TYR63       0.0574
     97  CG         1.0100    8.0440    0.2110 C.ar   63  TYR63      -0.0198
     98  CD1        1.0890    9.4460    0.4120 C.ar   63  TYR63      -0.0009
     99  CD2        1.7290    7.4610   -0.8600 C.ar   63  TYR63      -0.0009
    100  CE1        1.8770   10.2400   -0.4460 C.ar   63  TYR63       0.0417
    101  CE2        2.5140    8.2560   -1.7150 C.ar   63  TYR63       0.0417
    102  CZ         2.5890    9.6480   -1.5100 C.ar   63  TYR63       0.1957
    103  OH         3.3590   10.4300   -2.3470 O.3    63  TYR63      -0.2866
    104  N         -0.6950    7.2110    4.4660 N.am   64  ARG64      -0.1977
    105  CA        -1.6580    6.6340    5.3890 C.3    64  ARG64       0.1597
    106  C         -2.9580    6.3580    4.6450 C.2    64  ARG64       0.2287
    107  O         -3.4350    7.1600    3.8520 O.2    64  ARG64      -0.2864
    108  CB        -1.9140    7.5700    6.5660 C.3    64  ARG64       0.0334
    109  CG        -1.5840    9.0280    6.2340 C.3    64  ARG64       0.0492
    110  CD        -2.2340    9.9910    7.2280 C.3    64  ARG64       0.2205
    111  NE        -2.0070   11.3660    6.8200 N.pl3  64  ARG64      -0.0865
    112  CZ        -0.8860   11.9900    7.2320 C.cat  64  ARG64       0.5346
    113  NH1       -0.0100   11.3500    8.0020 N.pl3  64  ARG64       0.1354
    114  NH2       -0.6550   13.2480    6.8690 N.pl3  64  ARG64       0.1354
    115  N         -7.7920    7.7660    1.5070 N.3    75  ILE75      -0.1245
    116  CA        -6.5810    8.4790    1.8640 C.3    75  ILE75       0.1561
    117  C         -6.9060    9.9730    1.9160 C.2    75  ILE75       0.2260
    118  O         -7.6720   10.4900    1.1130 O.2    75  ILE75      -0.2867
    119  CB        -5.5110    8.2030    0.8080 C.3    75  ILE75       0.0252
    120  CG1       -5.0940    6.7330    0.8320 C.3    75  ILE75       0.0019
    121  CG2       -4.2870    9.0970    1.0160 C.3    75  ILE75       0.0019
    122  CD1       -3.9250    6.4730   -0.1210 C.3    75  ILE75       0.0001
    123  N         -4.9620   12.8090    1.4080 N.3    77  GLU77      -0.1231
    124  CA        -4.6000   13.4940    0.1780 C.3    77  GLU77       0.1699
    125  C         -4.9310   12.6120   -1.0350 C.2    77  GLU77       0.2592
    126  O         -5.3070   13.0940   -2.0970 O.2    77  GLU77      -0.2718
    127  CB        -3.1110   13.8210    0.2090 C.3    77  GLU77       0.0402
    128  CG        -2.7150   14.5000    1.5200 C.3    77  GLU77       0.1161
    129  CD        -3.3960   15.8670    1.6210 C.2    77  GLU77       0.3649
    130  OE1       -3.3130   16.6360    0.6650 O.co2  77  GLU77      -0.2457
    131  OE2       -4.0010   16.1450    2.6550 O.co2  77  GLU77      -0.2457
    132  N         -4.7660   11.2930   -0.8020 N.am   78  GLY78      -0.1957
    133  CA        -5.0370   10.3530   -1.8760 C.3    78  GLY78       0.1869
    134  C         -6.4630   10.5100   -2.4130 C.2    78  GLY78       0.2309
    135  O         -6.8610   11.5640   -2.8930 O.2    78  GLY78      -0.2863
    136  N         -5.0010    2.9270   -8.2180 N.3    91  TYR91      -0.1241
    137  CA        -3.7010    3.5520   -8.2220 C.3    91  TYR91       0.1605
    138  C         -2.7560    2.7820   -9.1430 C.2    91  TYR91       0.2264
    139  O         -1.7800    3.3200   -9.6470 O.2    91  TYR91      -0.2867
    140  CB        -3.1640    3.6280   -6.8090 C.3    91  TYR91       0.0534
    141  CG        -3.6690    4.8730   -6.1230 C.ar   91  TYR91      -0.0201
    142  CD1       -4.9660    5.3730   -6.4140 C.ar   91  TYR91      -0.0009
    143  CD2       -2.8660    5.5590   -5.1800 C.ar   91  TYR91      -0.0009
    144  CE1       -5.4500    6.5330   -5.7730 C.ar   91  TYR91       0.0417
    145  CE2       -3.3550    6.7240   -4.5390 C.ar   91  TYR91       0.0417
    146  CZ        -4.6450    7.2060   -4.8340 C.ar   91  TYR91       0.1957
    147  OH        -5.1180    8.3400   -4.2050 O.3    91  TYR91      -0.2866
    148  N         -2.4100   11.0190   -6.7790 N.3    97  GLY97      -0.1210
    149  CA        -1.8730   11.9510   -5.8070 C.3    97  GLY97       0.1956
    150  C         -0.4720   11.5320   -5.3390 C.2    97  GLY97       0.2612
    151  O          0.3370   12.3540   -4.9260 O.2    97  GLY97      -0.2717
    152  N         -0.2380   10.2050   -5.4330 N.am   98  LEU98      -0.1965
    153  CA         1.0550    9.7040   -5.0210 C.3    98  LEU98       0.1728
    154  C          2.1380   10.5480   -5.6720 C.2    98  LEU98       0.2616
    155  O          1.8720   11.4780   -6.4240 O.2    98  LEU98      -0.2715
    156  CB         1.2190    8.2650   -5.4970 C.3    98  LEU98       0.0311
    157  CG         0.0380    7.3950   -5.1100 C.3    98  LEU98       0.0022
    158  CD1        0.1000    6.0660   -5.8430 C.3    98  LEU98       0.0001
    159  CD2        0.0260    7.1850   -3.5980 C.3    98  LEU98       0.0001
    160  N          3.3750   10.1550   -5.3420 N.am   99  LEU99      -0.1977
    161  CA         4.4920   10.8410   -5.9570 C.3    99  LEU99       0.1596
    162  C          4.4780   10.4920   -7.4500 C.2    99  LEU99       0.2287
    163  O          4.6910   11.3280   -8.3190 O.2    99  LEU99      -0.2864
    164  CB         5.7920   10.3860   -5.3030 C.3    99  LEU99       0.0297
    165  CG         6.8410   11.4970   -5.2810 C.3    99  LEU99       0.0022
    166  CD1        7.1600   11.9590   -6.7000 C.3    99  LEU99       0.0001
    167  CD2        6.3570   12.6750   -4.4310 C.3    99  LEU99       0.0001
@<TRIPOS>BOND
     1   139   138    2
     2   138   137    1
     3   163   162    2
     4   137   136    1
     5   137   140    1
     6   162   161    1
     7   140   141    1
     8   148   149    1
     9   166   165    1
    10   155   154    2
    11   142   141   ar
    12   142   144   ar
    13   141   143   ar
    14   161   160    1
    15   161   164    1
    16   158   157    1
    17   149   150    1
    18   144   146   ar
    19   154   160   am
    20   154   153    1
    21   156   157    1
    22   156   153    1
    23   152   150   am
    24   152   153    1
    25   150   151    2
    26   164   165    1
    27   165   167    1
    28   143   145   ar
    29   157   159    1
    30   146   145   ar
    31   146   147    1
    32   135   134    2
    33   134   133    1
    34    80    79    1
    35   103   102    1
    36   126   125    2
    37   133   132    1
    38   101   102   ar
    39   101    99   ar
    40   102   100   ar
    41    79    78    1
    42    79    81    1
    43    64    63    2
    44   125   132   am
    45   125   124    1
    46    63    62    1
    47    99    97   ar
    48    67    68    1
    49    78    75    1
    50   100    98   ar
    51    68    69    1
    52    68    71    1
    53   122   120    1
    54    74    69   am
    55    74    75    1
    56   124   127    1
    57   124   123    1
    58   127   128    1
    59    97    98   ar
    60    97    96    1
    61    69    70    2
    62    62    61    1
    63    62    65    1
    64    73    71    1
    65    75    76    1
    66   130   129   ar
    67    71    72    1
    68   119   120    1
    69   119   121    1
    70   119   116    1
    71    77    76    2
    72   118   117    2
    73    96    93    1
    74    76    82   am
    75    21    20    2
    76   115   116    1
    77   128   129    1
    78    65    66    1
    79   129   131   ar
    80   116   117    1
    81    82    83    1
    82    20    19    1
    83    92    93    1
    84    92    84   am
    85    93    94    1
    86    19    18    1
    87    19    22    1
    88    83    84    1
    89    83    86    1
    90    84    85    2
    91    27    28    1
    92    95    94    2
    93    58    59    2
    94    58    57    1
    95    94   104   am
    96    22    23    1
    97    23    24    1
    98   107   106    2
    99    89    91   ar
   100    89    87   ar
   101    91    90   ar
   102    87    86    1
   103    87    88   ar
   104    90    88   ar
   105    28    29    1
   106    28    31    1
   107   104   105    1
   108    57    56    1
   109    57    60    1
   110   106   105    1
   111    24    25   ar
   112    24    26   ar
   113    29    30    2
   114    31    32    1
   115    56    46   am
   116   105   108    1
   117    10     9    2
   118    51    53   ar
   119    51    49   ar
   120    48    49    1
   121    48    45    1
   122    53    54   ar
   123    46    47    2
   124    46    45    1
   125    49    50   ar
   126   109   108    1
   127   109   110    1
   128    32    33    1
   129     9     8    1
   130    45    44    1
   131   111   110    1
   132   111   112    2
   133   114   112    1
   134    12    13    1
   135    12    11    1
   136     8    11    1
   137     8     7    1
   138   112   113    1
   139    54    55    1
   140    54    52   ar
   141    33    34    1
   142    50    52   ar
   143    44    40   am
   144    13    14    1
   145     7     3   am
   146    14    15    2
   147     4     3    2
   148    34    35    2
   149     3     2    1
   150     1     2    1
   151    36    35    1
   152    40    41    2
   153    40    39    1
   154    35    37    1
   155    15    17    1
   156    15    16    1
   157     2     5    1
   158    42    39    1
   159    42    43    1
   160    39    38    1
   161     5     6    1
