@<TRIPOS>MOLECULE
tmp/1ct9A01.pdb
 119 111 0 0 0
SMALL
GASTEIGER

@<TRIPOS>ATOM
      1  N         -0.5850   61.9360  122.9110 N.3     1  ALA1       -0.1245
      2  CA        -1.7960   62.7090  122.7560 C.3     1  ALA1        0.1562
      3  C         -1.7060   63.5640  121.5120 C.2     1  ALA1        0.2260
      4  O         -0.6900   63.6460  120.8130 O.2     1  ALA1       -0.2867
      5  CB        -1.8820   63.7000  123.9240 C.3     1  ALA1        0.0290
      6  N         -8.0590   68.6340  122.8380 N.3    47  HIS47      -0.1241
      7  CA        -6.9800   67.6900  123.1890 C.3    47  HIS47       0.1621
      8  C         -7.4550   66.2500  123.2000 C.2    47  HIS47       0.2264
      9  O         -8.6080   66.0220  123.5310 O.2    47  HIS47      -0.2867
     10  CB        -6.4350   68.1100  124.5870 C.3    47  HIS47       0.0745
     11  CG        -5.2240   67.3800  125.0710 C.ar   47  HIS47       0.0817
     12  ND1       -5.3000   66.0850  125.6190 N.ar   47  HIS47      -0.2268
     13  CD2       -3.9210   67.7870  125.1080 C.ar   47  HIS47       0.1154
     14  CE1       -4.0270   65.7400  125.9350 C.ar   47  HIS47       0.1986
     15  NE2       -3.1560   66.7350  125.6340 N.ar   47  HIS47      -0.2212
     16  N         -6.2050   62.7360  124.7850 N.3    49  ARG49      -0.1231
     17  CA        -5.1800   62.2510  125.7120 C.3    49  ARG49       0.1694
     18  C         -4.7430   60.7610  125.7170 C.2    49  ARG49       0.2591
     19  O         -5.5230   59.8260  125.5180 O.2    49  ARG49      -0.2718
     20  CB        -5.6730   62.6070  127.1140 C.3    49  ARG49       0.0321
     21  CG        -4.5360   62.8040  128.1190 C.3    49  ARG49       0.0489
     22  CD        -5.0000   62.9880  129.5590 C.3    49  ARG49       0.2205
     23  NE        -3.8760   62.8090  130.4690 N.pl3  49  ARG49      -0.0865
     24  CZ        -3.9720   62.4800  131.7570 C.cat  49  ARG49       0.5346
     25  NH1       -5.1650   62.3250  132.3560 N.pl3  49  ARG49       0.1354
     26  NH2       -2.8380   62.3380  132.4390 N.pl3  49  ARG49       0.1354
     27  N         -3.4500   60.6060  126.0210 N.am   50  LEU50      -0.1980
     28  CA        -2.7250   59.3830  126.3050 C.3    50  LEU50       0.1596
     29  C         -2.0670   59.6850  127.6610 C.2    50  LEU50       0.2287
     30  O         -1.0540   60.3610  127.7040 O.2    50  LEU50      -0.2864
     31  CB        -1.6830   58.8850  125.2900 C.3    50  LEU50       0.0297
     32  CG        -0.9610   57.6170  125.7840 C.3    50  LEU50       0.0022
     33  CD1       -1.8330   56.4000  125.5050 C.3    50  LEU50       0.0001
     34  CD2        0.2340   57.3710  124.9080 C.3    50  LEU50       0.0001
     35  N         -0.0370   59.3160  130.8070 N.3    52  ILE52      -0.1231
     36  CA         1.1490   58.5870  131.2120 C.3    52  ILE52       0.1692
     37  C          1.5430   58.9340  132.6340 C.2    52  ILE52       0.2591
     38  O          1.8880   58.1020  133.4730 O.2    52  ILE52      -0.2718
     39  CB         2.2730   58.8640  130.2260 C.3    52  ILE52       0.0266
     40  CG1        1.8370   58.5450  128.7950 C.3    52  ILE52       0.0019
     41  CG2        3.5760   58.1760  130.5680 C.3    52  ILE52       0.0020
     42  CD1        1.7990   57.0730  128.4600 C.3    52  ILE52       0.0001
     43  N          1.4270   60.2160  132.8750 N.am   53  VAL53      -0.1980
     44  CA         1.7240   60.8460  134.1460 C.3    53  VAL53       0.1595
     45  C          0.4690   61.4790  134.7620 C.2    53  VAL53       0.2287
     46  O         -0.2430   62.2860  134.1590 O.2    53  VAL53      -0.2864
     47  CB         2.8000   61.8950  133.9210 C.3    53  VAL53       0.0276
     48  CG1        3.0740   62.7380  135.1570 C.3    53  VAL53       0.0022
     49  CG2        4.0710   61.2430  133.4080 C.3    53  VAL53       0.0022
     50  N         -4.5620   64.4010  135.5320 N.3    58  GLY58      -0.1225
     51  CA        -3.7220   64.9910  134.4890 C.3    58  GLY58       0.1811
     52  C         -4.4610   65.4360  133.2060 C.2    58  GLY58       0.2280
     53  O         -3.8420   65.7400  132.1950 O.2    58  GLY58      -0.2866
     54  N         -6.5140   67.3000  130.1510 N.3    60  GLN60      -0.1245
     55  CA        -6.2930   68.5290  129.4340 C.3    60  GLN60       0.1566
     56  C         -7.4550   68.8540  128.5100 C.2    60  GLN60       0.2260
     57  O         -8.2520   67.9950  128.1530 O.2    60  GLN60      -0.2867
     58  CB        -5.0580   68.4860  128.5650 C.3    60  GLN60       0.0367
     59  CG        -3.9340   67.7070  129.2130 C.3    60  GLN60       0.0905
     60  CD        -2.6990   68.2450  128.5350 C.2    60  GLN60       0.2608
     61  OE1       -2.8650   69.2370  127.8320 O.2    60  GLN60      -0.2717
     62  NE2       -1.5270   67.6390  128.7180 N.am   60  GLN60      -0.0878
     63  N         -1.1560   70.3330  125.6670 N.3    73  VAL73      -0.1231
     64  CA         0.1610   69.8060  125.3690 C.3    73  VAL73       0.1692
     65  C          0.2170   68.3060  125.0420 C.2    73  VAL73       0.2592
     66  O         -0.4600   67.4790  125.6250 O.2    73  VAL73      -0.2718
     67  CB         1.0570   69.9840  126.5960 C.3    73  VAL73       0.0266
     68  CG1        2.5080   69.5170  126.4210 C.3    73  VAL73       0.0020
     69  CG2        0.9260   71.3530  127.2570 C.3    73  VAL73       0.0020
     70  N          1.1340   68.0160  124.1170 N.am   74  ASN74      -0.1960
     71  CA         1.5050   66.6890  123.6870 C.3    74  ASN74       0.1819
     72  C          2.9800   66.5760  124.0620 C.2    74  ASN74       0.2622
     73  O          3.8830   67.1580  123.4350 O.2    74  ASN74      -0.2715
     74  CB         1.2030   66.3970  122.1970 C.3    74  ASN74       0.1195
     75  CG         1.7840   65.0890  121.6350 C.2    74  ASN74       0.2630
     76  OD1        2.1900   65.0160  120.4680 O.2    74  ASN74      -0.2716
     77  ND2        1.8610   64.0390  122.4610 N.am   74  ASN74      -0.0877
     78  N          3.2830   65.8980  125.1660 N.am   75  GLY75      -0.1940
     79  CA         4.6770   65.8360  125.5170 C.3    75  GLY75       0.2014
     80  C          4.9440   65.3080  126.9260 C.2    75  GLY75       0.2638
     81  O          4.0480   64.8380  127.6000 O.2    75  GLY75      -0.2714
     82  N          6.2270   65.3510  127.3100 N.am   76  GLU76      -0.1977
     83  CA         6.6880   64.9210  128.6080 C.3    76  GLU76       0.1602
     84  C          7.7060   65.9430  129.0460 C.2    76  GLU76       0.2287
     85  O          8.7060   66.1950  128.3330 O.2    76  GLU76      -0.2864
     86  CB         7.4030   63.5560  128.5310 C.3    76  GLU76       0.0415
     87  CG         6.4380   62.4600  128.1170 C.3    76  GLU76       0.1163
     88  CD         5.3250   62.2220  129.0930 C.2    76  GLU76       0.3649
     89  OE1        4.3180   61.5910  128.8110 O.co2  76  GLU76      -0.2457
     90  OE2        5.5540   62.6920  130.2890 O.co2  76  GLU76      -0.2457
     91  N          0.1510   66.7240  136.6670 N.3    97  SER97      -0.1202
     92  CA         0.6830   66.6480  135.3230 C.3    97  SER97       0.2020
     93  C          2.0430   67.3170  135.1370 C.2    97  SER97       0.2619
     94  O          2.2630   68.4850  135.5080 O.2    97  SER97      -0.2717
     95  CB        -0.3380   67.1180  134.3010 C.3    97  SER97       0.2103
     96  OG         0.3040   67.3380  133.0720 O.3    97  SER97      -0.2182
     97  N          2.9730   66.5720  134.5270 N.am   98  ASP98      -0.1959
     98  CA         4.2720   67.0930  134.2130 C.3    98  ASP98       0.1840
     99  C          4.1410   68.3600  133.3150 C.2    98  ASP98       0.2622
    100  O          4.9890   69.2420  133.3330 O.2    98  ASP98      -0.2715
    101  CB         5.0890   66.0250  133.4860 C.3    98  ASP98       0.1450
    102  CG         4.3810   65.5500  132.2280 C.2    98  ASP98       0.3671
    103  OD1        3.4210   64.8550  132.2670 O.co2  98  ASP98      -0.2456
    104  OD2        4.8510   66.0210  131.0940 O.co2  98  ASP98      -0.2456
    105  N          3.0710   68.4270  132.5450 N.am   99  CYS99      -0.1968
    106  CA         2.7950   69.5180  131.6260 C.3    99  CYS99       0.1712
    107  C          2.3130   70.8810  132.2240 C.2    99  CYS99       0.2296
    108  O          2.4600   71.9920  131.6820 O.2    99  CYS99      -0.2864
    109  CB         1.8310   68.9040  130.5740 C.3    99  CYS99       0.0983
    110  SG         2.6870   67.8580  129.3410 S.3    99  CYS99      -0.0798
    111  N          3.5230   56.0380  123.3990 N.3   382  GLU382     -0.1245
    112  CA         4.4900   57.1140  123.5320 C.3   382  GLU382      0.1567
    113  C          5.9340   56.6420  123.4660 C.2   382  GLU382      0.2260
    114  O          6.2750   55.7150  124.1810 O.2   382  GLU382     -0.2867
    115  CB         4.2560   57.8930  124.8140 C.3   382  GLU382      0.0388
    116  CG         5.3420   58.9540  125.0590 C.3   382  GLU382      0.1160
    117  CD         5.2410   59.5400  126.4370 C.2   382  GLU382      0.3649
    118  OE1        5.7540   59.0490  127.4030 O.co2 382  GLU382     -0.2457
    119  OE2        4.5040   60.6040  126.5060 O.co2 382  GLU382     -0.2457
@<TRIPOS>BOND
     1    76    75    2
     2     4     3    2
     3     3     2    1
     4    75    74    1
     5    75    77   am
     6    74    71    1
     7     2     1    1
     8     2     5    1
     9     6     7    1
    10     7     8    1
    11     7    10    1
    12     8     9    2
    13   111   112    1
    14    73    72    2
    15   113   112    1
    16   113   114    2
    17   112   115    1
    18    71    72    1
    19    71    70    1
    20    72    78   am
    21    70    65   am
    22    10    11    1
    23    16    17    1
    24   115   116    1
    25    34    32    1
    26    65    64    1
    27    65    66    2
    28   116   117    1
    29    11    13   ar
    30    11    12   ar
    31    13    15   ar
    32    78    79    1
    33    31    32    1
    34    31    28    1
    35    64    63    1
    36    64    67    1
    37    33    32    1
    38    79    80    1
    39    19    18    2
    40    12    14   ar
    41    15    14   ar
    42    17    18    1
    43    17    20    1
    44    18    27   am
    45    27    28    1
    46    28    29    1
    47    68    67    1
    48   117   119   ar
    49   117   118   ar
    50    67    69    1
    51    80    82   am
    52    80    81    2
    53    20    21    1
    54    82    83    1
    55    29    30    2
    56    61    60    2
    57    87    86    1
    58    87    88    1
    59    21    22    1
    60    57    56    2
    61    85    84    2
    62    42    40    1
    63    56    55    1
    64    86    83    1
    65    60    62   am
    66    60    59    1
    67    58    59    1
    68    58    55    1
    69    83    84    1
    70    40    39    1
    71    89    88   ar
    72    88    90   ar
    73   110   109    1
    74    55    54    1
    75    22    23    1
    76    39    41    1
    77    39    36    1
    78    23    24    2
    79   109   106    1
    80    35    36    1
    81   104   102   ar
    82    36    37    1
    83   106   107    1
    84   106   105    1
    85   108   107    2
    86    24    25    1
    87    24    26    1
    88    53    52    2
    89   102   103   ar
    90   102   101    1
    91   105    99   am
    92    37    43   am
    93    37    38    2
    94    43    44    1
    95    96    95    1
    96    52    51    1
    97    99   100    2
    98    99    98    1
    99    49    47    1
   100   101    98    1
   101    47    44    1
   102    47    48    1
   103    44    45    1
   104    46    45    2
   105    98    97    1
   106    95    92    1
   107    51    50    1
   108    97    93   am
   109    93    92    1
   110    93    94    2
   111    92    91    1
