@<TRIPOS>MOLECULE
tmp/1ct9A00.pdb
 171 159 0 0 0
SMALL
GASTEIGER

@<TRIPOS>ATOM
      1  N         12.3680   49.4010  123.3120 N.3   232  LEU232     -0.1231
      2  CA        12.3950   48.8390  121.9840 C.3   232  LEU232      0.1693
      3  C         13.7910   48.3040  121.7760 C.2   232  LEU232      0.2592
      4  O         14.7540   49.0640  121.6810 O.2   232  LEU232     -0.2718
      5  CB        12.1160   49.8930  120.9020 C.3   232  LEU232      0.0284
      6  CG        10.7540   50.5470  120.9700 C.3   232  LEU232      0.0019
      7  CD1       10.6120   51.4590  119.7620 C.3   232  LEU232      0.0001
      8  CD2        9.6250   49.5220  120.9130 C.3   232  LEU232      0.0001
      9  N         13.9060   46.9820  121.7180 N.am  233  LEU233     -0.1966
     10  CA        15.1910   46.3260  121.5720 C.3   233  LEU233      0.1728
     11  C         15.4720   45.7880  120.1730 C.2   233  LEU233      0.2616
     12  O         14.7750   44.8870  119.7100 O.2   233  LEU233     -0.2715
     13  CB        15.2040   45.1580  122.5720 C.3   233  LEU233      0.0311
     14  CG        16.5630   44.5150  122.8140 C.3   233  LEU233      0.0022
     15  CD1       17.7010   45.5280  122.7780 C.3   233  LEU233      0.0001
     16  CD2       16.5100   43.9110  124.1980 C.3   233  LEU233      0.0001
     17  N         16.5030   46.3250  119.5040 N.am  234  SER234     -0.1950
     18  CA        16.8570   45.8410  118.1770 C.3   234  SER234      0.1924
     19  C         17.9940   44.8660  118.2770 C.2   234  SER234      0.2314
     20  O         18.2680   44.1070  117.3570 O.2   234  SER234     -0.2863
     21  CB        17.3530   46.9300  117.2490 C.3   234  SER234      0.2116
     22  OG        18.5630   47.4680  117.7470 O.3   234  SER234     -0.2180
     23  N         22.7290   50.9520  120.2290 N.3   238  ASP238     -0.1225
     24  CA        21.9120   52.0080  120.8080 C.3   238  ASP238      0.1805
     25  C         20.8000   51.5270  121.7290 C.2   238  ASP238      0.2598
     26  O         20.7540   51.8670  122.9330 O.2   238  ASP238     -0.2718
     27  CB        21.4680   53.0630  119.7420 C.3   238  ASP238      0.1424
     28  CG        22.4420   53.1480  118.5750 C.2   238  ASP238      0.3668
     29  OD1       22.1990   52.9170  117.3750 O.co2 238  ASP238     -0.2456
     30  OD2       23.6220   53.4590  119.0150 O.co2 238  ASP238     -0.2456
     31  N         19.9100   50.7470  121.1230 N.am  239  SER239     -0.1952
     32  CA        18.7650   50.2150  121.8000 C.3   239  SER239      0.1924
     33  C         19.1840   49.2630  122.9040 C.2   239  SER239      0.2314
     34  O         18.5160   49.1790  123.9200 O.2   239  SER239     -0.2863
     35  CB        17.7510   49.6220  120.8290 C.3   239  SER239      0.2116
     36  OG        18.0890   48.2840  120.4870 O.3   239  SER239     -0.2180
     37  N         10.8660   44.6170  123.3750 N.3   254  PHE254     -0.1227
     38  CA        10.1670   44.3150  122.1300 C.3   254  PHE254      0.1736
     39  C         11.0540   44.4300  120.9280 C.2   254  PHE254      0.2595
     40  O         11.8300   45.3640  120.8260 O.2   254  PHE254     -0.2718
     41  CB         9.0230   45.3190  121.9430 C.3   254  PHE254      0.0547
     42  CG         8.0390   45.2520  123.0890 C.ar  254  PHE254     -0.0202
     43  CD1        8.1720   46.0900  124.1960 C.ar  254  PHE254     -0.0042
     44  CD2        7.0260   44.2910  123.0740 C.ar  254  PHE254     -0.0042
     45  CE1        7.2770   45.9970  125.2590 C.ar  254  PHE254     -0.0003
     46  CE2        6.1000   44.2020  124.1170 C.ar  254  PHE254     -0.0003
     47  CZ         6.2380   45.0610  125.2110 C.ar  254  PHE254     -0.0000
     48  N         10.9220   43.4780  120.0160 N.am  255  ALA255     -0.1966
     49  CA        11.6910   43.5020  118.7890 C.3   255  ALA255      0.1728
     50  C         10.7740   43.0820  117.6950 C.2   255  ALA255      0.2616
     51  O          9.8640   42.2940  117.9200 O.2   255  ALA255     -0.2715
     52  CB        12.9630   42.6950  118.7780 C.3   255  ALA255      0.0334
     53  N         10.9700   43.6420  116.5220 N.am  256  VAL256     -0.1977
     54  CA        10.0610   43.2880  115.4470 C.3   256  VAL256      0.1596
     55  C         10.8700   42.8130  114.2720 C.2   256  VAL256      0.2287
     56  O         12.0180   43.1980  114.1080 O.2   256  VAL256     -0.2864
     57  CB         9.1540   44.4630  115.0200 C.3   256  VAL256      0.0276
     58  CG1        9.9270   45.6610  114.4570 C.3   256  VAL256      0.0022
     59  CG2        8.1110   44.0380  113.9720 C.3   256  VAL256      0.0022
     60  N         17.6920   41.3690  113.2710 N.3   263  ASP263     -0.1239
     61  CA        17.2220   42.0990  114.4370 C.3   263  ASP263      0.1674
     62  C         16.6230   41.1580  115.4830 C.2   263  ASP263      0.2266
     63  O         16.8770   41.2410  116.6750 O.2   263  ASP263     -0.2867
     64  CB        16.1500   43.0980  114.0070 C.3   263  ASP263      0.1410
     65  CG        16.7650   44.2810  113.3300 C.2   263  ASP263      0.3668
     66  OD1       16.1470   45.2600  112.9830 O.co2 263  ASP263     -0.2456
     67  OD2       18.0560   44.1600  113.1730 O.co2 263  ASP263     -0.2456
     68  N         11.2140   51.9290  106.7360 N.3   309  ALA309     -0.1245
     69  CA        11.5160   51.9100  108.1500 C.3   309  ALA309      0.1562
     70  C         10.3410   52.0250  109.0750 C.2   309  ALA309      0.2260
     71  O         10.2690   51.4110  110.1440 O.2   309  ALA309     -0.2867
     72  CB        12.5380   52.9770  108.4910 C.3   309  ALA309      0.0290
     73  N          7.8060   49.4690  112.4950 N.3   313  MET313     -0.1245
     74  CA         7.6280   50.1750  113.7470 C.3   313  MET313      0.1570
     75  C          6.1870   50.3420  114.0890 C.2   313  MET313      0.2261
     76  O          5.7600   50.1450  115.2260 O.2   313  MET313     -0.2867
     77  CB         8.3900   51.4840  113.8020 C.3   313  MET313      0.0387
     78  CG         8.3430   52.0360  115.2130 C.3   313  MET313      0.0595
     79  SD         9.9230   52.7190  115.7720 S.3   313  MET313     -0.1393
     80  CE        10.0070   54.2300  114.7670 C.3   313  MET313      0.0692
     81  N          4.7870   46.9060  115.0210 N.3   316  MET316     -0.1245
     82  CA         5.2920   46.5870  116.3350 C.3   316  MET316      0.1570
     83  C          4.4660   47.3010  117.4290 C.2   316  MET316      0.2261
     84  O          4.0290   46.7420  118.4560 O.2   316  MET316     -0.2867
     85  CB         6.8060   46.9470  116.4300 C.3   316  MET316      0.0387
     86  CG         7.2580   47.1200  117.8760 C.3   316  MET316      0.0595
     87  SD         9.0150   46.8540  118.2030 S.3   316  MET316     -0.1393
     88  CE         9.7350   48.2870  117.3400 C.3   316  MET316      0.0692
     89  N         13.3450   54.3580  123.2380 N.3   330  SER330     -0.1202
     90  CA        14.0400   54.0380  122.0140 C.3   330  SER330      0.2020
     91  C         15.4510   54.5680  122.0190 C.2   330  SER330      0.2619
     92  O         15.7600   55.4800  122.7790 O.2   330  SER330     -0.2717
     93  CB        13.3350   54.7950  120.8940 C.3   330  SER330      0.2103
     94  OG        13.4380   54.0830  119.6930 O.3   330  SER330     -0.2182
     95  N         16.2870   54.0150  121.1340 N.am  331  GLY331     -0.1942
     96  CA        17.6800   54.4160  120.9680 C.3   331  GLY331      0.2014
     97  C         17.8950   55.3890  119.7830 C.2   331  GLY331      0.2638
     98  O         19.0230   55.7260  119.3420 O.2   331  GLY331     -0.2714
     99  N         16.8160   55.8720  119.2200 N.am  332  GLU332     -0.1977
    100  CA        16.9960   56.8440  118.1430 C.3   332  GLU332      0.1602
    101  C         17.7940   58.0850  118.5730 C.2   332  GLU332      0.2287
    102  O         17.5800   58.6320  119.6640 O.2   332  GLU332     -0.2864
    103  CB        15.6180   57.3850  117.7400 C.3   332  GLU332      0.0415
    104  CG        15.0810   56.8460  116.4090 C.3   332  GLU332      0.1163
    105  CD        14.1390   55.7060  116.6620 C.2   332  GLU332      0.3649
    106  OE1       13.3760   55.2650  115.8170 O.co2 332  GLU332     -0.2457
    107  OE2       14.2260   55.2610  117.8980 O.co2 332  GLU332     -0.2457
    108  N         23.1450   57.5950  116.4740 N.3   335  ASP335     -0.1225
    109  CA        24.0030   57.6640  115.3010 C.3   335  ASP335      0.1805
    110  C         24.2180   59.0830  114.9000 C.2   335  ASP335      0.2597
    111  O         25.2960   59.4850  114.4700 O.2   335  ASP335     -0.2718
    112  CB        23.3850   56.8700  114.1320 C.3   335  ASP335      0.1424
    113  CG        23.0700   55.4900  114.6340 C.2   335  ASP335      0.3668
    114  OD1       21.9540   55.0860  114.8770 O.co2 335  ASP335     -0.2456
    115  OD2       24.1620   54.8070  114.8570 O.co2 335  ASP335     -0.2456
    116  N         23.1460   59.8530  114.9840 N.am  336  GLU336     -0.1979
    117  CA        23.2860   61.2460  114.5910 C.3   336  GLU336      0.1602
    118  C         24.1560   61.9710  115.5830 C.2   336  GLU336      0.2287
    119  O         24.8300   62.9440  115.2490 O.2   336  GLU336     -0.2864
    120  CB        21.9520   61.9600  114.5150 C.3   336  GLU336      0.0415
    121  CG        21.0490   61.3390  113.4540 C.3   336  GLU336      0.1163
    122  CD        20.2750   60.1580  113.9420 C.2   336  GLU336      0.3649
    123  OE1       19.4360   59.6390  113.2550 O.co2 336  GLU336     -0.2457
    124  OE2       20.6090   59.7390  115.1300 O.co2 336  GLU336     -0.2457
    125  N         26.6160   56.3840  111.5830 N.3   341  TYR341     -0.1241
    126  CA        26.3560   55.7770  110.2930 C.3   341  TYR341      0.1605
    127  C         27.6250   55.3540  109.5390 C.2   341  TYR341      0.2264
    128  O         28.7390   55.7720  109.8450 O.2   341  TYR341     -0.2867
    129  CB        25.3710   56.5950  109.4600 C.3   341  TYR341      0.0534
    130  CG        24.0900   56.9060  110.2310 C.ar  341  TYR341     -0.0201
    131  CD1       23.3610   55.8670  110.8090 C.ar  341  TYR341     -0.0009
    132  CD2       23.6010   58.2070  110.3740 C.ar  341  TYR341     -0.0009
    133  CE1       22.1700   56.0990  111.4990 C.ar  341  TYR341      0.0417
    134  CE2       22.4060   58.4660  111.0490 C.ar  341  TYR341      0.0417
    135  CZ        21.7000   57.4040  111.6200 C.ar  341  TYR341      0.1957
    136  OH        20.5320   57.6000  112.3050 O.3   341  TYR341     -0.2866
    137  N         13.5930   60.8050  111.4120 N.3   368  ASP368     -0.1239
    138  CA        13.5390   59.8050  112.4640 C.3   368  ASP368      0.1674
    139  C         12.6860   60.1740  113.6500 C.2   368  ASP368      0.2266
    140  O         12.2060   59.2840  114.3550 O.2   368  ASP368     -0.2867
    141  CB        14.9530   59.4870  112.9630 C.3   368  ASP368      0.1410
    142  CG        15.8720   58.9520  111.9000 C.2   368  ASP368      0.3668
    143  OD1       16.4220   57.8700  112.0290 O.co2 368  ASP368     -0.2456
    144  OD2       16.0360   59.7550  110.8490 O.co2 368  ASP368     -0.2456
    145  N          9.2510   59.4700  112.3260 N.3   371  ARG371     -0.1245
    146  CA         8.8910   58.0800  112.2770 C.3   371  ARG371      0.1563
    147  C          8.6450   57.5530  113.6590 C.2   371  ARG371      0.2260
    148  O          7.5940   56.9580  113.9200 O.2   371  ARG371     -0.2867
    149  CB         9.9920   57.3210  111.5450 C.3   371  ARG371      0.0307
    150  CG        10.9340   56.5250  112.4350 C.3   371  ARG371      0.0489
    151  CD        11.2690   55.1810  111.8240 C.3   371  ARG371      0.2205
    152  NE        12.5280   55.1590  111.0750 N.pl3 371  ARG371     -0.0865
    153  CZ        12.9650   56.0970  110.2240 C.cat 371  ARG371      0.5346
    154  NH1       12.2860   57.2200  109.9760 N.pl3 371  ARG371      0.1354
    155  NH2       14.1330   55.9150  109.5930 N.pl3 371  ARG371      0.1354
    156  N         28.1960   47.3450  112.0380 N.3   430  LYS430     -0.1245
    157  CA        27.0480   47.2170  111.1780 C.3   430  LYS430      0.1561
    158  C         27.5000   46.7810  109.8030 C.2   430  LYS430      0.2260
    159  O         28.6640   46.9450  109.4410 O.2   430  LYS430     -0.2867
    160  CB        26.0720   48.3920  111.1890 C.3   430  LYS430      0.0271
    161  CG        24.6020   47.9470  111.2070 C.3   430  LYS430      0.0035
    162  CD        23.6030   49.0930  111.3660 C.3   430  LYS430      0.0206
    163  CE        22.5310   48.8820  112.4500 C.3   430  LYS430      0.1093
    164  NZ        22.2840   50.0790  113.2880 N.3   430  LYS430     -0.1314
    165  N         15.4500   43.8760  109.6840 N.3   437  VAL437     -0.1245
    166  CA        14.0620   43.4240  109.6840 C.3   437  VAL437      0.1561
    167  C         13.7900   42.2290  108.7690 C.2   437  VAL437      0.2260
    168  O         12.7920   41.5050  108.8760 O.2   437  VAL437     -0.2867
    169  CB        13.2020   44.6300  109.3410 C.3   437  VAL437      0.0252
    170  CG1       12.1990   44.3650  108.2180 C.3   437  VAL437      0.0019
    171  CG2       12.5470   45.1680  110.6130 C.3   437  VAL437      0.0019
@<TRIPOS>BOND
     1    68    69    1
     2    69    72    1
     3    69    70    1
     4   170   169    1
     5   167   168    2
     6   167   166    1
     7    70    71    2
     8   169   166    1
     9   169   171    1
    10   159   158    2
    11   129   130    1
    12   129   126    1
    13   127   128    2
    14   127   126    1
    15   155   153    1
    16   165   166    1
    17   158   157    1
    18   154   153    1
    19   153   152    2
    20   130   132   ar
    21   130   131   ar
    22   126   125    1
    23   132   134   ar
    24   131   133   ar
    25   144   142   ar
    26   134   135   ar
    27   152   151    1
    28   157   160    1
    29   157   156    1
    30   160   161    1
    31   161   162    1
    32   162   163    1
    33   137   138    1
    34   133   135   ar
    35   149   146    1
    36   149   150    1
    37   135   136    1
    38   151   150    1
    39   142   143   ar
    40   142   141    1
    41   146   145    1
    42   146   147    1
    43   163   164    1
    44   138   141    1
    45   138   139    1
    46    73    74    1
    47    66    65   ar
    48    67    65   ar
    49   123   122   ar
    50    60    61    1
    51    65    64    1
    52   121   122    1
    53   121   120    1
    54   139   140    2
    55   147   148    2
    56    74    77    1
    57    74    75    1
    58    77    78    1
    59   122   124   ar
    60    59    57    1
    61    64    61    1
    62    75    76    2
    63    56    55    2
    64   112   113    1
    65   112   109    1
    66    55    54    1
    67    61    62    1
    68    58    57    1
    69   111   110    2
    70   120   117    1
    71   117   116    1
    72   117   118    1
    73   113   115   ar
    74   113   114   ar
    75    80    79    1
    76   110   116   am
    77   110   109    1
    78    57    54    1
    79    81    82    1
    80    78    79    1
    81   119   118    2
    82   109   108    1
    83    54    53    1
    84    62    63    2
    85   106   105   ar
    86    82    85    1
    87    82    83    1
    88   104   105    1
    89   104   103    1
    90    85    86    1
    91    53    50   am
    92   105   107   ar
    93    21    22    1
    94    21    18    1
    95    88    87    1
    96    20    19    2
    97    29    28   ar
    98    83    84    2
    99    50    51    2
   100    50    49    1
   101   103   100    1
   102    86    87    1
   103   100   101    1
   104   100    99    1
   105    18    19    1
   106    18    17    1
   107   101   102    2
   108    28    30   ar
   109    28    27    1
   110    52    49    1
   111    49    48    1
   112    99    97   am
   113    98    97    2
   114    17    11   am
   115    94    93    1
   116    12    11    2
   117    27    24    1
   118     7     6    1
   119    97    96    1
   120    48    39   am
   121    11    10    1
   122    23    24    1
   123    36    35    1
   124    24    25    1
   125    40    39    2
   126    35    32    1
   127    93    90    1
   128     5     6    1
   129     5     2    1
   130     8     6    1
   131    39    38    1
   132    96    95    1
   133    31    25   am
   134    31    32    1
   135    95    91   am
   136    10     9    1
   137    10    13    1
   138     4     3    2
   139     9     3   am
   140    25    26    2
   141     3     2    1
   142    32    33    1
   143    41    38    1
   144    41    42    1
   145     2     1    1
   146    90    91    1
   147    90    89    1
   148    91    92    2
   149    38    37    1
   150    13    14    1
   151    15    14    1
   152    14    16    1
   153    33    34    2
   154    44    42   ar
   155    44    46   ar
   156    42    43   ar
   157    46    47   ar
   158    43    45   ar
   159    47    45   ar
