@<TRIPOS>MOLECULE
tmp/1cteA00.pdb
 95 93 0 0 0
SMALL
GASTEIGER

@<TRIPOS>ATOM
      1  N         13.5630   60.4280   32.7700 N.3    23  GLN23      -0.1245
      2  CA        13.1800   61.7200   33.3350 C.3    23  GLN23       0.1566
      3  C         14.2650   62.8150   33.2360 C.2    23  GLN23       0.2260
      4  O         14.0010   63.9930   33.5410 O.2    23  GLN23      -0.2867
      5  CB        12.7910   61.5360   34.8030 C.3    23  GLN23       0.0367
      6  CG        13.9420   61.0790   35.6630 C.3    23  GLN23       0.0905
      7  CD        13.5110   60.7300   37.0690 C.2    23  GLN23       0.2608
      8  OE1       13.8810   61.4040   38.0200 O.2    23  GLN23      -0.2717
      9  NE2       12.7280   59.6690   37.2060 N.am   23  GLN23      -0.0878
     10  N         10.0750   61.6840   39.0730 N.3    29  CYS29      -0.1235
     11  CA         9.6660   60.2920   39.3110 C.3    29  CYS29       0.1677
     12  C          8.1630   60.1750   39.4490 C.2    29  CYS29       0.2270
     13  O          7.5560   59.1750   39.0840 O.2    29  CYS29      -0.2867
     14  CB        10.2300   59.7850   40.6210 C.3    29  CYS29       0.0956
     15  SG        11.9400   60.1140   40.9320 S.3    29  CYS29      -0.0801
     16  N          9.1070   53.9100   47.0610 N.3   174  PHE174     -0.1241
     17  CA         9.9700   53.1670   47.9630 C.3   174  PHE174      0.1605
     18  C         11.1990   53.9440   48.3930 C.2   174  PHE174      0.2264
     19  O         11.5200   54.9780   47.8290 O.2   174  PHE174     -0.2867
     20  CB        10.3390   51.7740   47.3550 C.3   174  PHE174      0.0534
     21  CG        11.4110   51.8150   46.3370 C.ar  174  PHE174     -0.0203
     22  CD1       12.6130   51.1740   46.5610 C.ar  174  PHE174     -0.0042
     23  CD2       11.2470   52.5370   45.1720 C.ar  174  PHE174     -0.0042
     24  CE1       13.6340   51.2640   45.6520 C.ar  174  PHE174     -0.0003
     25  CE2       12.2520   52.6270   44.2640 C.ar  174  PHE174     -0.0003
     26  CZ        13.4530   51.9940   44.5050 C.ar  174  PHE174     -0.0000
     27  N         14.9600   54.8500   48.9200 N.3   176  VAL176     -0.1245
     28  CA        16.1440   54.4830   48.1860 C.3   176  VAL176      0.1561
     29  C         17.3900   54.6010   49.0490 C.2   176  VAL176      0.2260
     30  O         17.7670   55.6770   49.4580 O.2   176  VAL176     -0.2867
     31  CB        16.2990   55.3320   46.9070 C.3   176  VAL176      0.0252
     32  CG1       17.5380   54.8920   46.1200 C.3   176  VAL176      0.0019
     33  CG2       15.0740   55.1750   46.0420 C.3   176  VAL176      0.0019
     34  N         21.1600   50.6220   45.9660 N.3   180  PHE180     -0.1241
     35  CA        20.1900   50.4520   44.8690 C.3   180  PHE180      0.1605
     36  C         20.8180   50.9010   43.5360 C.2   180  PHE180      0.2264
     37  O         20.7520   50.1810   42.5410 O.2   180  PHE180     -0.2867
     38  CB        18.9290   51.2960   45.1700 C.3   180  PHE180      0.0534
     39  CG        17.9300   51.3810   44.0220 C.ar  180  PHE180     -0.0203
     40  CD1       17.2130   50.2710   43.6220 C.ar  180  PHE180     -0.0042
     41  CD2       17.7180   52.5840   43.3630 C.ar  180  PHE180     -0.0042
     42  CE1       16.2920   50.3640   42.5690 C.ar  180  PHE180     -0.0003
     43  CE2       16.8150   52.6880   42.3160 C.ar  180  PHE180     -0.0003
     44  CZ        16.1050   51.5860   41.9250 C.ar  180  PHE180     -0.0000
     45  N         11.3910   57.1610   46.1940 N.3   199  HIS199     -0.1226
     46  CA        11.2040   57.5440   44.7890 C.3   199  HIS199      0.1752
     47  C         10.1560   56.7150   44.0570 C.2   199  HIS199      0.2596
     48  O          9.9480   55.5720   44.4500 O.2   199  HIS199     -0.2718
     49  CB        12.5550   57.5300   44.0780 C.3   199  HIS199      0.0759
     50  CG        13.4400   58.6500   44.5240 C.ar  199  HIS199      0.0818
     51  ND1       12.9580   59.9340   44.6610 N.ar  199  HIS199     -0.2268
     52  CD2       14.6400   58.6380   45.1470 C.ar  199  HIS199      0.1154
     53  CE1       13.8080   60.6560   45.3680 C.ar  199  HIS199      0.1986
     54  NE2       14.8390   59.8910   45.6750 N.ar  199  HIS199     -0.2212
     55  N          9.3130   57.3920   43.2560 N.am  200  ALA200     -0.1966
     56  CA         8.1710   56.7810   42.5530 C.3   200  ALA200      0.1728
     57  C          8.5670   55.9000   41.3820 C.2   200  ALA200      0.2616
     58  O          9.5770   56.1320   40.7180 O.2   200  ALA200     -0.2715
     59  CB         7.1860   57.8500   42.0920 C.3   200  ALA200      0.0334
     60  N          7.8150   54.8250   41.2020 N.am  201  ILE201     -0.1977
     61  CA         8.0910   53.8720   40.1410 C.3   201  ILE201      0.1596
     62  C          6.8250   53.1970   39.6610 C.2   201  ILE201      0.2287
     63  O          5.7370   53.4930   40.1400 O.2   201  ILE201     -0.2864
     64  CB         9.1520   52.7860   40.5380 C.3   201  ILE201      0.0276
     65  CG1        8.9150   52.2830   41.9480 C.3   201  ILE201      0.0022
     66  CG2       10.5420   53.3160   40.3680 C.3   201  ILE201      0.0022
     67  CD1        7.7600   51.4120   42.0790 C.3   201  ILE201      0.0001
     68  N         12.0320   51.4920   36.2800 N.3   219  ASN219     -0.1225
     69  CA        12.6110   52.7800   36.6650 C.3   219  ASN219      0.1785
     70  C         12.5770   53.7430   35.4420 C.2   219  ASN219      0.2598
     71  O         12.2430   53.3300   34.3270 O.2   219  ASN219     -0.2718
     72  CB        14.0520   52.5480   37.1900 C.3   219  ASN219      0.1169
     73  CG        14.5540   53.6390   38.0900 C.2   219  ASN219      0.2627
     74  OD1       13.9810   54.7120   38.1750 O.2   219  ASN219     -0.2716
     75  ND2       15.7530   53.4450   38.5930 N.am  219  ASN219     -0.0877
     76  N         12.7990   55.0270   35.6900 N.am  220  SER220     -0.1938
     77  CA        12.7640   56.0400   34.6580 C.3   220  SER220      0.2055
     78  C         14.1300   56.7000   34.5980 C.2   220  SER220      0.2643
     79  O         14.2650   57.9480   34.4820 O.2   220  SER220     -0.2714
     80  CB        11.6830   57.0760   34.9840 C.3   220  SER220      0.2130
     81  OG        11.9200   57.5500   36.2830 O.3   220  SER220     -0.2179
     82  N         15.1370   55.8320   34.5660 N.am  221  TRP221     -0.1973
     83  CA        16.5390   56.2200   34.3960 C.3   221  TRP221      0.1640
     84  C         17.1490   55.7260   33.0450 C.2   221  TRP221      0.2290
     85  O         18.3670   55.5570   32.9550 O.2   221  TRP221     -0.2864
     86  CB        17.3670   55.6680   35.5830 C.3   221  TRP221      0.0576
     87  CG        17.1480   56.4100   36.9180 C.ar  221  TRP221      0.0006
     88  CD1       16.4150   57.5510   37.1060 C.ar  221  TRP221      0.0946
     89  CD2       17.7340   56.0980   38.1820 C.ar  221  TRP221      0.0152
     90  NE1       16.5360   57.9760   38.3910 N.ar  221  TRP221     -0.2442
     91  CE2       17.3170   57.0940   39.0890 C.ar  221  TRP221      0.0810
     92  CE3       18.5660   55.0630   38.6430 C.ar  221  TRP221      0.0012
     93  CZ2       17.6880   57.0880   40.4490 C.ar  221  TRP221      0.0191
     94  CZ3       18.9370   55.0550   39.9790 C.ar  221  TRP221      0.0001
     95  CH2       18.4900   56.0590   40.8720 C.ar  221  TRP221      0.0015
@<TRIPOS>BOND
     1     1     2    1
     2    85    84    2
     3    84    83    1
     4     3     2    1
     5     3     4    2
     6     2     5    1
     7    71    70    2
     8    83    82    1
     9    83    86    1
    10    79    78    2
    11    82    78   am
    12    78    77    1
    13    77    80    1
    14    77    76    1
    15     5     6    1
    16    80    81    1
    17    70    76   am
    18    70    69    1
    19    86    87    1
    20     6     7    1
    21    68    69    1
    22    69    72    1
    23    87    88   ar
    24    87    89   ar
    25     7     9   am
    26     7     8    2
    27    88    90   ar
    28    72    73    1
    29    73    74    2
    30    73    75   am
    31    89    92   ar
    32    89    91   ar
    33    90    91   ar
    34    92    94   ar
    35    10    11    1
    36    13    12    2
    37    91    93   ar
    38    11    12    1
    39    11    14    1
    40    62    63    2
    41    62    61    1
    42    94    95   ar
    43    61    64    1
    44    61    60    1
    45    66    64    1
    46    93    95   ar
    47    64    65    1
    48    14    15    1
    49    58    57    2
    50    60    57   am
    51    57    56    1
    52    44    43   ar
    53    44    42   ar
    54    65    67    1
    55    59    56    1
    56    43    41   ar
    57    37    36    2
    58    56    55    1
    59    42    40   ar
    60    55    47   am
    61    41    39   ar
    62    36    35    1
    63    40    39   ar
    64    39    38    1
    65    47    48    2
    66    47    46    1
    67    49    50    1
    68    49    46    1
    69    25    26   ar
    70    25    23   ar
    71    26    24   ar
    72    50    51   ar
    73    50    52   ar
    74    51    53   ar
    75    46    45    1
    76    35    38    1
    77    35    34    1
    78    52    54   ar
    79    23    21   ar
    80    53    54   ar
    81    24    22   ar
    82    33    31    1
    83    32    31    1
    84    21    22   ar
    85    21    20    1
    86    31    28    1
    87    16    17    1
    88    20    17    1
    89    19    18    2
    90    17    18    1
    91    28    27    1
    92    28    29    1
    93    29    30    2
