@<TRIPOS>MOLECULE
tmp/1ctrA00.pdb
 123 114 0 0 0
SMALL
GASTEIGER

@<TRIPOS>ATOM
      1  N         10.5090   23.6290   96.0680 N.3    11  GLU11      -0.1245
      2  CA        10.3280   23.5160   97.4910 C.3    11  GLU11       0.1567
      3  C         10.2110   22.0430   97.8760 C.2    11  GLU11       0.2260
      4  O         11.0130   21.4980   98.6410 O.2    11  GLU11      -0.2867
      5  CB         9.0750   24.3140   97.8970 C.3    11  GLU11       0.0388
      6  CG         9.2350   25.8430   97.7820 C.3    11  GLU11       0.1160
      7  CD         8.0100   26.7080   98.1260 C.2    11  GLU11       0.3649
      8  OE1        6.8590   26.2810   97.9260 O.co2  11  GLU11      -0.2457
      9  OE2        8.2040   27.9160   98.2980 O.co2  11  GLU11      -0.2457
     10  N          5.0670   20.9990  116.8400 N.3    87  PHE87      -0.1241
     11  CA         5.5890   22.3490  116.9160 C.3    87  PHE87       0.1605
     12  C          5.1900   23.0280  118.2000 C.2    87  PHE87       0.2264
     13  O          5.8050   24.0210  118.5330 O.2    87  PHE87      -0.2867
     14  CB         5.0590   23.2370  115.8130 C.3    87  PHE87       0.0534
     15  CG         4.9080   22.6020  114.4540 C.ar   87  PHE87      -0.0203
     16  CD1        3.7920   21.8380  114.1800 C.ar   87  PHE87      -0.0042
     17  CD2        5.9220   22.7430  113.5280 C.ar   87  PHE87      -0.0042
     18  CE1        3.7200   21.1850  112.9670 C.ar   87  PHE87      -0.0003
     19  CE2        5.8410   22.0860  112.3370 C.ar   87  PHE87      -0.0003
     20  CZ         4.7490   21.3070  112.0650 C.ar   87  PHE87      -0.0000
     21  N          1.4440   28.1790  117.1910 N.3    95  ILE95      -0.1245
     22  CA         2.8360   27.8190  116.9970 C.3    95  ILE95       0.1561
     23  C          3.6140   29.0620  116.5670 C.2    95  ILE95       0.2260
     24  O          3.1610   29.9350  115.8350 O.2    95  ILE95      -0.2867
     25  CB         3.0200   26.6320  116.0230 C.3    95  ILE95       0.0252
     26  CG1        4.1390   26.9060  115.0440 C.3    95  ILE95       0.0019
     27  CG2        1.7240   26.2260  115.3140 C.3    95  ILE95       0.0019
     28  CD1        4.6730   25.6110  114.4250 C.3    95  ILE95       0.0001
     29  N          8.4140   26.8270  115.2810 N.3   100  LEU100     -0.1245
     30  CA         8.6620   26.3700  113.9100 C.3   100  LEU100      0.1561
     31  C         10.1190   26.0330  113.7200 C.2   100  LEU100      0.2260
     32  O         10.5140   24.8770  113.6910 O.2   100  LEU100     -0.2867
     33  CB         8.3700   27.5010  112.9140 C.3   100  LEU100      0.0270
     34  CG         8.0460   27.1700  111.4330 C.3   100  LEU100      0.0019
     35  CD1        9.0340   27.8620  110.5020 C.3   100  LEU100      0.0001
     36  CD2        8.0010   25.6640  111.1650 C.3   100  LEU100      0.0001
     37  N         12.7080   22.5480  113.1050 N.3   104  MET104     -0.1245
     38  CA        13.5080   22.3880  111.8920 C.3   104  MET104      0.1570
     39  C         14.9440   22.0780  112.2550 C.2   104  MET104      0.2261
     40  O         15.5240   21.2380  111.5610 O.2   104  MET104     -0.2867
     41  CB        13.4940   23.6170  110.9670 C.3   104  MET104      0.0387
     42  CG        12.1100   24.0230  110.4630 C.3   104  MET104      0.0595
     43  SD        11.5880   23.1490  108.9680 S.3   104  MET104     -0.1393
     44  CE         9.8720   22.9010  109.3350 C.3   104  MET104      0.0692
     45  N          8.8300   34.3330  107.1240 N.3   118  GLU118     -0.1231
     46  CA         8.3550   34.0770  105.7590 C.3   118  GLU118      0.1699
     47  C          7.4210   32.9000  105.7900 C.2   118  GLU118      0.2592
     48  O          6.3140   32.9280  105.2530 O.2   118  GLU118     -0.2718
     49  CB         9.5130   33.7460  104.7750 C.3   118  GLU118      0.0402
     50  CG         9.2280   32.6230  103.7490 C.3   118  GLU118      0.1161
     51  CD        10.4180   31.7070  103.3330 C.2   118  GLU118      0.3649
     52  OE1       11.5260   31.9910  103.7640 O.co2 118  GLU118     -0.2457
     53  OE2       10.2330   30.6170  102.7240 O.co2 118  GLU118     -0.2457
     54  N          7.7730   31.9200  106.6090 N.am  119  MET119     -0.1965
     55  CA         6.9600   30.7230  106.6890 C.3   119  MET119      0.1736
     56  C          5.6820   30.9680  107.4220 C.2   119  MET119      0.2616
     57  O          4.6570   30.4490  106.9660 O.2   119  MET119     -0.2715
     58  CB         7.7310   29.6180  107.3670 C.3   119  MET119      0.0427
     59  CG         8.7980   29.0880  106.4330 C.3   119  MET119      0.0599
     60  SD         9.6220   27.6850  107.1620 S.3   119  MET119     -0.1393
     61  CE        11.2420   28.0420  106.5570 C.3   119  MET119      0.0692
     62  N          5.7710   31.4780  108.6730 N.am  120  ILE120     -0.1977
     63  CA         4.5300   31.7640  109.4040 C.3   120  ILE120      0.1596
     64  C          3.6730   32.7190  108.6230 C.2   120  ILE120      0.2287
     65  O          2.5110   32.4080  108.3590 O.2   120  ILE120     -0.2864
     66  CB         4.7420   32.3280  110.8210 C.3   120  ILE120      0.0276
     67  CG1        6.1040   31.9740  111.3680 C.3   120  ILE120      0.0022
     68  CG2        3.6750   31.7550  111.7390 C.3   120  ILE120      0.0022
     69  CD1        6.1140   30.6510  112.1470 C.3   120  ILE120      0.0001
     70  N          3.3100   33.2270  105.6010 N.3   122  GLU122     -0.1231
     71  CA         2.5800   32.5920  104.5120 C.3   122  GLU122      0.1699
     72  C          1.3910   31.7830  104.9850 C.2   122  GLU122      0.2592
     73  O          0.2700   31.9730  104.5060 O.2   122  GLU122     -0.2718
     74  CB         3.5180   31.7120  103.7160 C.3   122  GLU122      0.0402
     75  CG         4.4840   32.5610  102.9030 C.3   122  GLU122      0.1161
     76  CD         5.3100   31.7030  101.9840 C.2   122  GLU122      0.3649
     77  OE1        5.1420   30.4890  102.1380 O.co2 122  GLU122     -0.2457
     78  OE2        6.3610   32.1820  101.5190 O.co2 122  GLU122     -0.2457
     79  N          1.5070   31.0900  106.1140 N.am  123  ALA123     -0.1980
     80  CA         0.3560   30.3400  106.5570 C.3   123  ALA123      0.1597
     81  C         -0.4010   31.0360  107.6690 C.2   123  ALA123      0.2287
     82  O         -1.2800   30.4390  108.2640 O.2   123  ALA123     -0.2864
     83  CB         0.8450   29.0260  107.0800 C.3   123  ALA123      0.0319
     84  N          0.6780   30.7740  114.5750 N.3   131  VAL131     -0.1245
     85  CA        -0.1470   29.8670  113.7970 C.3   131  VAL131      0.1561
     86  C         -1.0400   29.0040  114.7050 C.2   131  VAL131      0.2260
     87  O         -0.6210   28.5610  115.7550 O.2   131  VAL131     -0.2867
     88  CB         0.8490   29.1040  112.9010 C.3   131  VAL131      0.0252
     89  CG1        0.2720   27.9250  112.1790 C.3   131  VAL131      0.0019
     90  CG2        1.4340   30.0700  111.9000 C.3   131  VAL131      0.0019
     91  N         -3.6290   26.0130  110.6890 N.3   136  PHE136     -0.1241
     92  CA        -2.7280   24.9430  110.3740 C.3   136  PHE136      0.1605
     93  C         -3.5440   23.9060  109.6120 C.2   136  PHE136      0.2264
     94  O         -3.0610   23.2770  108.6650 O.2   136  PHE136     -0.2867
     95  CB        -2.0980   24.4430  111.6860 C.3   136  PHE136      0.0534
     96  CG        -1.1500   23.2730  111.5570 C.ar  136  PHE136     -0.0203
     97  CD1        0.1650   23.4890  111.2200 C.ar  136  PHE136     -0.0042
     98  CD2       -1.5880   22.0040  111.8610 C.ar  136  PHE136     -0.0042
     99  CE1        1.0600   22.4270  111.1990 C.ar  136  PHE136     -0.0003
    100  CE2       -0.6820   20.9580  111.8320 C.ar  136  PHE136     -0.0003
    101  CZ         0.6480   21.1580  111.5090 C.ar  136  PHE136     -0.0000
    102  N         -6.4470   24.6460  107.5640 N.3   138  GLN138     -0.1231
    103  CA        -6.5230   25.1330  106.1760 C.3   138  GLN138      0.1698
    104  C         -5.2520   24.8730  105.4040 C.2   138  GLN138      0.2592
    105  O         -5.3340   24.5890  104.2240 O.2   138  GLN138     -0.2718
    106  CB        -6.7250   26.6430  106.0770 C.3   138  GLN138      0.0381
    107  CG        -8.1450   27.1110  106.3830 C.3   138  GLN138      0.0905
    108  CD        -8.1340   27.9990  107.6250 C.2   138  GLN138      0.2608
    109  OE1       -7.9220   29.2210  107.5530 O.2   138  GLN138     -0.2717
    110  NE2       -8.2920   27.4060  108.8080 N.am  138  GLN138     -0.0878
    111  N         -4.1610   25.4830  105.8670 N.am  139  MET139     -0.1979
    112  CA        -2.8650   25.3610  105.2100 C.3   139  MET139      0.1605
    113  C         -2.5630   23.9930  104.6560 C.2   139  MET139      0.2287
    114  O         -1.5570   23.8470  103.9860 O.2   139  MET139     -0.2864
    115  CB        -1.7610   25.7250  106.1960 C.3   139  MET139      0.0413
    116  CG        -0.4490   24.9890  105.9580 C.3   139  MET139      0.0598
    117  SD         0.8260   25.3630  107.1950 S.3   139  MET139     -0.1393
    118  CE         1.3910   23.7270  107.5330 C.3   139  MET139      0.0692
    119  N         -5.3220   21.4590  102.2480 N.3   142  ALA142     -0.1245
    120  CA        -4.7580   21.5700  100.9210 C.3   142  ALA142      0.1562
    121  C         -4.3270   23.0270  100.8150 C.2   142  ALA142      0.2260
    122  O         -4.9020   23.8090  101.6070 O.2   142  ALA142     -0.2867
    123  CB        -5.7920   21.2460   99.8370 C.3   142  ALA142      0.0290
@<TRIPOS>BOND
     1     1     2    1
     2     2     3    1
     3     2     5    1
     4     6     5    1
     5     6     7    1
     6     3     4    2
     7     8     7   ar
     8     7     9   ar
     9   123   120    1
    10   121   120    1
    11   121   122    2
    12   120   119    1
    13    78    76   ar
    14    76    77   ar
    15    76    75    1
    16    53    51   ar
    17    75    74    1
    18    51    50    1
    19    51    52   ar
    20    74    71    1
    21    50    49    1
    22   114   113    2
    23   105   104    2
    24    73    72    2
    25    71    72    1
    26    71    70    1
    27   113   112    1
    28    49    46    1
    29    72    79   am
    30   112   111    1
    31   112   115    1
    32    48    47    2
    33   104   111   am
    34   104   103    1
    35    46    47    1
    36    46    45    1
    37    47    54   am
    38   116   115    1
    39   116   117    1
    40   106   103    1
    41   106   107    1
    42    79    80    1
    43   103   102    1
    44   107   108    1
    45    59    60    1
    46    59    58    1
    47    80    83    1
    48    80    81    1
    49    61    60    1
    50    54    55    1
    51    55    58    1
    52    55    56    1
    53    57    56    2
    54   117   118    1
    55    56    62   am
    56   109   108    2
    57   108   110   am
    58    81    82    2
    59    65    64    2
    60    64    63    1
    61    94    93    2
    62    62    63    1
    63    43    44    1
    64    43    42    1
    65    63    66    1
    66    93    92    1
    67    92    91    1
    68    92    95    1
    69    42    41    1
    70    35    34    1
    71    66    67    1
    72    66    68    1
    73    41    38    1
    74    36    34    1
    75    99    97   ar
    76    99   101   ar
    77    97    96   ar
    78    67    69    1
    79    34    33    1
    80   101   100   ar
    81    96    95    1
    82    96    98   ar
    83    40    39    2
    84   100    98   ar
    85    38    39    1
    86    38    37    1
    87    90    88    1
    88    20    19   ar
    89    20    18   ar
    90    89    88    1
    91    19    17   ar
    92    88    85    1
    93    33    30    1
    94    18    16   ar
    95    17    15   ar
    96    32    31    2
    97    31    30    1
    98    85    84    1
    99    85    86    1
   100    30    29    1
   101    16    15   ar
   102    28    26    1
   103    15    14    1
   104    86    87    2
   105    26    25    1
   106    27    25    1
   107    14    11    1
   108    24    23    2
   109    25    22    1
   110    23    22    1
   111    10    11    1
   112    11    12    1
   113    22    21    1
   114    12    13    2
