@<TRIPOS>MOLECULE
tmp/1ctuA00.pdb
 117 113 0 0 0
SMALL
GASTEIGER

@<TRIPOS>ATOM
      1  N         36.7250   55.7370   15.9500 N.3    69  SER69      -0.1217
      2  CA        35.9990   54.5200   16.2590 C.3    69  SER69       0.1889
      3  C         36.5840   53.7420   17.4070 C.2    69  SER69       0.2288
      4  O         35.8420   53.3030   18.2670 O.2    69  SER69      -0.2866
      5  CB        35.9480   53.5810   15.0800 C.3    69  SER69       0.2089
      6  OG        37.2560   53.3450   14.6170 O.3    69  SER69      -0.2183
      7  N         37.6200   51.0750   16.9280 N.3    71  PHE71      -0.1241
      8  CA        37.1090   49.8440   16.3920 C.3    71  PHE71       0.1605
      9  C         38.1300   49.2010   15.4610 C.2    71  PHE71       0.2264
     10  O         38.2580   49.4920   14.2550 O.2    71  PHE71      -0.2867
     11  CB        35.7110   50.0540   15.7740 C.3    71  PHE71       0.0534
     12  CG        34.9320   48.8260   15.3010 C.ar   71  PHE71      -0.0203
     13  CD1       34.0980   48.1190   16.1690 C.ar   71  PHE71      -0.0042
     14  CD2       34.9520   48.4460   13.9610 C.ar   71  PHE71      -0.0042
     15  CE1       33.4080   46.9810   15.7460 C.ar   71  PHE71      -0.0003
     16  CE2       34.2270   47.3470   13.4910 C.ar   71  PHE71      -0.0003
     17  CZ        33.4590   46.6200   14.3980 C.ar   71  PHE71      -0.0000
     18  N         39.7570   46.7050   13.1060 N.3    73  VAL73      -0.1245
     19  CA        39.3830   45.7070   12.1430 C.3    73  VAL73       0.1561
     20  C         40.5610   45.2580   11.3280 C.2    73  VAL73       0.2260
     21  O         41.2390   46.0810   10.7130 O.2    73  VAL73      -0.2867
     22  CB        38.2940   46.1590   11.1890 C.3    73  VAL73       0.0252
     23  CG1       37.9610   45.0330   10.2250 C.3    73  VAL73       0.0019
     24  CG2       37.0670   46.5780   11.9970 C.3    73  VAL73       0.0019
     25  N         42.0000   48.9270    9.1620 N.3    89  ASN89      -0.1240
     26  CA        41.3870   50.1990    8.9210 C.3    89  ASN89       0.1653
     27  C         42.1920   51.3700    9.4490 C.2    89  ASN89       0.2266
     28  O         42.9220   51.2730   10.4300 O.2    89  ASN89      -0.2867
     29  CB        39.9470   50.2710    9.4500 C.3    89  ASN89       0.1155
     30  CG        39.8380   49.9650   10.9370 C.2    89  ASN89       0.2627
     31  OD1       40.5880   49.1260   11.4430 O.2    89  ASN89      -0.2716
     32  ND2       38.8640   50.5620   11.6400 N.am   89  ASN89      -0.0877
     33  N         41.6560   55.7180   10.3030 N.3    91  GLU91      -0.1245
     34  CA        40.8590   56.9330   10.4180 C.3    91  GLU91       0.1567
     35  C         41.7860   58.0960   10.7360 C.2    91  GLU91       0.2260
     36  O         42.6410   58.0090   11.6230 O.2    91  GLU91      -0.2867
     37  CB        39.8080   56.8410   11.5290 C.3    91  GLU91       0.0388
     38  CG        39.4400   55.3640   11.7770 C.3    91  GLU91       0.1160
     39  CD        38.4310   55.1640   12.8300 C.2    91  GLU91       0.3649
     40  OE1       38.5220   55.6740   13.9450 O.co2  91  GLU91      -0.2457
     41  OE2       37.5390   54.2700   12.4480 O.co2  91  GLU91      -0.2457
     42  N         38.6790   57.9030    5.2560 N.3   100  THR100     -0.1203
     43  CA        38.8250   56.6570    5.9710 C.3   100  THR100      0.1994
     44  C         39.2190   55.5420    5.0510 C.2   100  THR100      0.2618
     45  O         39.0050   55.6110    3.8570 O.2   100  THR100     -0.2717
     46  CB        37.4770   56.2570    6.5970 C.3   100  THR100      0.1784
     47  OG1       37.0240   57.3260    7.3980 O.3   100  THR100     -0.2211
     48  CG2       37.5490   54.9490    7.4150 C.3   100  THR100      0.0376
     49  N         39.8300   54.5120    5.6310 N.am  101  VAL101     -0.1965
     50  CA        40.2780   53.3410    4.9040 C.3   101  VAL101      0.1727
     51  C         39.7520   52.1210    5.6280 C.2   101  VAL101      0.2616
     52  O         39.8290   52.0580    6.8580 O.2   101  VAL101     -0.2715
     53  CB        41.7980   53.3080    4.8050 C.3   101  VAL101      0.0290
     54  CG1       42.3040   51.9110    4.4900 C.3   101  VAL101      0.0023
     55  CG2       42.2740   54.2490    3.7240 C.3   101  VAL101      0.0023
     56  N         39.1700   51.1690    4.8840 N.am  102  HIS102     -0.1959
     57  CA        38.6590   49.9950    5.5590 C.3   102  HIS102      0.1787
     58  C         39.6890   48.8750    5.5810 C.2   102  HIS102      0.2620
     59  O         40.4990   48.7200    4.6620 O.2   102  HIS102     -0.2715
     60  CB        37.3830   49.5360    4.8760 C.3   102  HIS102      0.0785
     61  CG        36.2350   50.4320    5.1790 C.ar  102  HIS102      0.0821
     62  ND1       35.0760   49.9840    5.8060 N.ar  102  HIS102     -0.2267
     63  CD2       36.0900   51.7530    4.9360 C.ar  102  HIS102      0.1154
     64  CE1       34.2840   51.0370    5.9310 C.ar  102  HIS102      0.1986
     65  NE2       34.8690   52.1120    5.4320 N.ar  102  HIS102     -0.2212
     66  N         39.6200   48.0240    6.5930 N.am  103  ALA103     -0.1963
     67  CA        40.5780   46.9260    6.6720 C.3   103  ALA103      0.1728
     68  C         40.7100   46.2330    5.3570 C.2   103  ALA103      0.2616
     69  O         41.8070   46.0050    4.8640 O.2   103  ALA103     -0.2715
     70  CB        40.2340   45.9450    7.7570 C.3   103  ALA103      0.0334
     71  N         39.5830   45.9680    4.7380 N.am  104  GLU104     -0.1977
     72  CA        39.5770   45.2760    3.4640 C.3   104  GLU104      0.1602
     73  C         40.2630   46.0390    2.3670 C.2   104  GLU104      0.2287
     74  O         40.8570   45.4370    1.4840 O.2   104  GLU104     -0.2864
     75  CB        38.1310   45.0390    2.9390 C.3   104  GLU104      0.0415
     76  CG        37.1590   44.2800    3.8740 C.3   104  GLU104      0.1163
     77  CD        36.6140   45.0440    5.0580 C.2   104  GLU104      0.3649
     78  OE1       37.3340   45.5720    5.8780 O.co2 104  GLU104     -0.2457
     79  OE2       35.3230   44.9050    5.2170 O.co2 104  GLU104     -0.2457
     80  N         35.4350   40.8760   10.9670 N.3   126  TYR126     -0.1227
     81  CA        34.1650   41.5210   11.0880 C.3   126  TYR126      0.1736
     82  C         33.4960   41.5200    9.7470 C.2   126  TYR126      0.2596
     83  O         34.1660   41.5190    8.7140 O.2   126  TYR126     -0.2718
     84  CB        34.3810   42.9530   11.5460 C.3   126  TYR126      0.0548
     85  CG        33.3670   43.2530   12.5790 C.ar  126  TYR126     -0.0200
     86  CD1       32.0950   43.7050   12.2220 C.ar  126  TYR126     -0.0009
     87  CD2       33.6400   42.9590   13.9130 C.ar  126  TYR126     -0.0009
     88  CE1       31.1160   43.9170   13.1890 C.ar  126  TYR126      0.0417
     89  CE2       32.6610   43.1460   14.8870 C.ar  126  TYR126      0.0417
     90  CZ        31.3960   43.6220   14.5240 C.ar  126  TYR126      0.1957
     91  OH        30.4470   43.8530   15.5090 O.3   126  TYR126     -0.2866
     92  N         32.1750   41.4740    9.7480 N.am  127  THR127     -0.1939
     93  CA        31.4840   41.4150    8.4760 C.3   127  THR127      0.2013
     94  C         31.7230   42.7110    7.7220 C.2   127  THR127      0.2484
     95  O         31.6940   43.8170    8.2420 O.2   127  THR127     -0.2729
     96  CB        29.9950   41.1800    8.7010 C.3   127  THR127      0.1807
     97  OG1       29.3520   41.0980    7.4440 O.3   127  THR127     -0.2208
     98  CG2       29.4530   42.3460    9.5030 C.3   127  THR127      0.0379
     99  N         32.0040   42.5740    6.4670 N.am  128  PRO128     -0.2715
    100  CA        32.2840   43.7110    5.6300 C.3   128  PRO128      0.1536
    101  C         31.0760   44.5750    5.3730 C.2   128  PRO128      0.2598
    102  O         30.0470   44.0860    4.8890 O.2   128  PRO128     -0.2715
    103  CB        32.6690   43.0950    4.2820 C.3   128  PRO128      0.0310
    104  CG        32.2020   41.6370    4.3100 C.3   128  PRO128      0.0237
    105  CD        31.8730   41.2840    5.7590 C.3   128  PRO128      0.0939
    106  N         31.2790   45.8740    5.5740 N.am  129  CYS129     -0.1968
    107  CA        30.3390   46.9150    5.2440 C.3   129  CYS129      0.1712
    108  C         30.1390   46.8710    3.7260 C.2   129  CYS129      0.2296
    109  O         30.9420   46.2800    2.9750 O.2   129  CYS129     -0.2864
    110  CB        30.8710   48.2930    5.7090 C.3   129  CYS129      0.0983
    111  SG        32.0630   48.9270    4.5010 S.3   129  CYS129     -0.0798
    112  N         32.7940   48.1150    1.3430 N.3   132  CYS132     -0.1235
    113  CA        33.8040   47.1100    1.0320 C.3   132  CYS132      0.1677
    114  C         33.2920   46.0000    0.1600 C.2   132  CYS132      0.2270
    115  O         34.0340   45.5520   -0.7180 O.2   132  CYS132     -0.2867
    116  CB        34.4530   46.5320    2.2780 C.3   132  CYS132      0.0956
    117  SG        35.3430   47.8000    3.2070 S.3   132  CYS132     -0.0801
@<TRIPOS>BOND
     1   115   114    2
     2   114   113    1
     3   113   112    1
     4   113   116    1
     5    74    73    2
     6   116   117    1
     7    73    72    1
     8    75    72    1
     9    75    76    1
    10   109   108    2
    11    72    71    1
    12    55    53    1
    13   108   107    1
    14    45    44    2
    15    76    77    1
    16   103   104    1
    17   103   100    1
    18   104   105    1
    19    54    53    1
    20   111   110    1
    21    59    58    2
    22    71    68   am
    23    53    50    1
    24    69    68    2
    25    60    61    1
    26    60    57    1
    27    56    57    1
    28    56    51   am
    29   102   101    2
    30    50    51    1
    31    50    49    1
    32    63    61   ar
    33    63    65   ar
    34    44    49   am
    35    44    43    1
    36    77    79   ar
    37    77    78   ar
    38    61    62   ar
    39   107   106    1
    40   107   110    1
    41    42    43    1
    42    68    67    1
    43   101   106   am
    44   101   100    1
    45    65    64   ar
    46    57    58    1
    47    58    66   am
    48    51    52    2
    49   100    99    1
    50   105    99    1
    51    62    64   ar
    52    43    46    1
    53    99    94   am
    54    66    67    1
    55    46    47    1
    56    46    48    1
    57    67    70    1
    58    97    96    1
    59    94    95    2
    60    94    93    1
    61    93    96    1
    62    93    92    1
    63    96    98    1
    64    83    82    2
    65    26    25    1
    66    26    27    1
    67    26    29    1
    68    27    28    2
    69    29    30    1
    70    82    92   am
    71    82    81    1
    72    23    22    1
    73    33    34    1
    74    34    35    1
    75    34    37    1
    76    21    20    2
    77    35    36    2
    78    30    31    2
    79    30    32   am
    80    80    81    1
    81    81    84    1
    82    22    24    1
    83    22    19    1
    84    20    19    1
    85    37    38    1
    86    84    85    1
    87    38    39    1
    88    19    18    1
    89    86    85   ar
    90    86    88   ar
    91    41    39   ar
    92    85    87   ar
    93    39    40   ar
    94    88    90   ar
    95    16    14   ar
    96    16    17   ar
    97    87    89   ar
    98    14    12   ar
    99    10     9    2
   100    17    15   ar
   101    90    89   ar
   102    90    91    1
   103     6     5    1
   104     5     2    1
   105    12    11    1
   106    12    13   ar
   107     9     8    1
   108    15    13   ar
   109    11     8    1
   110     1     2    1
   111     2     3    1
   112     8     7    1
   113     3     4    2
