@<TRIPOS>MOLECULE
tmp/1cu4B00.pdb
 128 126 0 0 0
SMALL
GASTEIGER

@<TRIPOS>ATOM
      1  N         13.9550   -9.8400   36.3310 N.3    28  LYS28      -0.1231
      2  CA        14.3830   -9.4380   35.0020 C.3    28  LYS28       0.1693
      3  C         13.7360   -8.1060   34.6800 C.2    28  LYS28       0.2592
      4  O         14.3760   -7.2040   34.1480 O.2    28  LYS28      -0.2718
      5  CB        13.9500  -10.4760   33.9680 C.3    28  LYS28       0.0285
      6  CG        13.7470   -9.9230   32.5630 C.3    28  LYS28       0.0035
      7  CD        12.6620  -10.6930   31.8270 C.3    28  LYS28       0.0206
      8  CE        12.5580  -10.2600   30.3600 C.3    28  LYS28       0.1093
      9  NZ        11.4730  -10.9950   29.6230 N.3    28  LYS28      -0.1314
     10  N         12.4700   -7.9840   35.0560 N.am   29  ASP29      -0.1960
     11  CA        11.6810   -6.7980   34.7770 C.3    29  ASP29       0.1840
     12  C         12.0500   -5.5670   35.5880 C.2    29  ASP29       0.2622
     13  O         11.4590   -4.4860   35.4050 O.2    29  ASP29      -0.2715
     14  CB        10.2080   -7.1140   34.9790 C.3    29  ASP29       0.1450
     15  CG         9.8100   -8.4200   34.3460 C.2    29  ASP29       0.3671
     16  OD1       10.0860   -8.6180   33.1380 O.co2  29  ASP29      -0.2456
     17  OD2        9.2390   -9.2570   35.0780 O.co2  29  ASP29      -0.2456
     18  N         13.0390   -5.7080   36.4630 N.am   30  TYR30      -0.1960
     19  CA        13.4410   -4.5890   37.2900 C.3    30  TYR30       0.1771
     20  C         14.9320   -4.3450   37.2670 C.2    30  TYR30       0.2619
     21  O         15.7000   -5.1850   36.7960 O.2    30  TYR30      -0.2715
     22  CB        12.9800   -4.8320   38.7150 C.3    30  TYR30       0.0574
     23  CG        11.5010   -5.0180   38.7970 C.ar   30  TYR30      -0.0198
     24  CD1       10.9320   -6.2770   38.6340 C.ar   30  TYR30      -0.0009
     25  CD2       10.6630   -3.9290   39.0020 C.ar   30  TYR30      -0.0009
     26  CE1        9.5650   -6.4480   38.6710 C.ar   30  TYR30       0.0417
     27  CE2        9.2900   -4.0840   39.0420 C.ar   30  TYR30       0.0417
     28  CZ         8.7400   -5.3480   38.8770 C.ar   30  TYR30       0.1957
     29  OH         7.3650   -5.5020   38.9330 O.3    30  TYR30      -0.2866
     30  N         15.3140   -3.1390   37.6760 N.am   31  TYR31      -0.1974
     31  CA        16.7110   -2.7520   37.7780 C.3    31  TYR31       0.1639
     32  C         17.0160   -2.9840   39.2580 C.2    31  TYR31       0.2290
     33  O         16.2510   -2.5600   40.1280 O.2    31  TYR31      -0.2864
     34  CB        16.8950   -1.2560   37.4840 C.3    31  TYR31       0.0560
     35  CG        17.0090   -0.8210   36.0320 C.ar   31  TYR31      -0.0198
     36  CD1       17.0810   -1.7360   34.9850 C.ar   31  TYR31      -0.0009
     37  CD2       17.0650    0.5390   35.7130 C.ar   31  TYR31      -0.0009
     38  CE1       17.2040   -1.2970   33.6530 C.ar   31  TYR31       0.0417
     39  CE2       17.1880    0.9790   34.3980 C.ar   31  TYR31       0.0417
     40  CZ        17.2550    0.0640   33.3750 C.ar   31  TYR31       0.1957
     41  OH        17.3490    0.5300   32.0820 O.3    31  TYR31      -0.2866
     42  N         19.2520   -1.9710   42.1680 N.3    33  GLN33      -0.1245
     43  CA        20.2480   -0.9840   42.5860 C.3    33  GLN33       0.1566
     44  C         20.5920   -1.2710   44.0420 C.2    33  GLN33       0.2260
     45  O         19.7390   -1.7510   44.8020 O.2    33  GLN33      -0.2867
     46  CB        19.7030    0.4460   42.4350 C.3    33  GLN33       0.0367
     47  CG        18.8750    0.9500   43.6150 C.3    33  GLN33       0.0905
     48  CD        18.0870    2.2100   43.3090 C.2    33  GLN33       0.2608
     49  OE1       18.5070    3.0380   42.4990 O.2    33  GLN33      -0.2717
     50  NE2       16.9370    2.3680   43.9590 N.am   33  GLN33      -0.0878
     51  N         23.6460    0.1260   39.7690 N.3    48  TRP48      -0.1227
     52  CA        22.4900   -0.6910   39.4480 C.3    48  TRP48       0.1737
     53  C         22.7350   -1.5950   38.2480 C.2    48  TRP48       0.2595
     54  O         23.5960   -1.3100   37.4230 O.2    48  TRP48      -0.2718
     55  CB        21.2300    0.1790   39.2730 C.3    48  TRP48       0.0564
     56  CG        21.2210    1.1540   38.1330 C.ar   48  TRP48       0.0003
     57  CD1       22.2000    1.3600   37.2050 C.ar   48  TRP48       0.0946
     58  CD2       20.1350    2.0050   37.7650 C.ar   48  TRP48       0.0152
     59  NE1       21.7830    2.2690   36.2730 N.ar   48  TRP48      -0.2442
     60  CE2       20.5170    2.6840   36.5920 C.ar   48  TRP48       0.0810
     61  CE3       18.8700    2.2570   38.3090 C.ar   48  TRP48       0.0012
     62  CZ2       19.6740    3.6020   35.9500 C.ar   48  TRP48       0.0191
     63  CZ3       18.0330    3.1680   37.6730 C.ar   48  TRP48       0.0001
     64  CH2       18.4400    3.8270   36.5060 C.ar   48  TRP48       0.0015
     65  N         22.0060   -2.7040   38.1880 N.am   49  ILE49      -0.1966
     66  CA        22.1360   -3.6780   37.1100 C.3    49  ILE49       0.1727
     67  C         20.7850   -4.0890   36.5500 C.2    49  ILE49       0.2616
     68  O         19.7950   -4.2040   37.2850 O.2    49  ILE49      -0.2715
     69  CB        22.8780   -4.9680   37.5800 C.3    49  ILE49       0.0290
     70  CG1       22.8030   -6.0610   36.5090 C.3    49  ILE49       0.0022
     71  CG2       22.2860   -5.4830   38.8820 C.3    49  ILE49       0.0023
     72  CD1       23.6020   -7.2930   36.8300 C.3    49  ILE49       0.0001
     73  N         20.7640   -4.2900   35.2370 N.am   50  ASP50      -0.1971
     74  CA        19.5770   -4.7150   34.5150 C.3    50  ASP50       0.1709
     75  C         19.7350   -6.2080   34.2580 C.2    50  ASP50       0.2293
     76  O         20.2970   -6.6060   33.2330 O.2    50  ASP50      -0.2864
     77  CB        19.4660   -3.9720   33.1770 C.3    50  ASP50       0.1436
     78  CG        18.2860   -4.4450   32.3350 C.2    50  ASP50       0.3671
     79  OD1       17.4330   -5.2040   32.8510 O.co2  50  ASP50      -0.2456
     80  OD2       18.2130   -4.0560   31.1470 O.co2  50  ASP50      -0.2456
     81  N         18.2610   -8.7380   33.1750 N.3    52  GLU52      -0.1245
     82  CA        17.8400   -9.2930   31.8730 C.3    52  GLU52       0.1567
     83  C         18.9550   -9.4540   30.8500 C.2    52  GLU52       0.2260
     84  O         18.8450  -10.2330   29.9110 O.2    52  GLU52      -0.2867
     85  CB        16.7540   -8.4130   31.2620 C.3    52  GLU52       0.0388
     86  CG        16.0540   -9.0070   30.0560 C.3    52  GLU52       0.1160
     87  CD        15.1300   -8.0030   29.3780 C.2    52  GLU52       0.3649
     88  OE1       14.1660   -7.5150   30.0370 O.co2  52  GLU52      -0.2457
     89  OE2       15.3850   -7.6940   28.1870 O.co2  52  GLU52      -0.2457
     90  N         23.3730   -5.9140   32.3320 N.3    55  ASN55      -0.1225
     91  CA        23.9260   -4.6280   31.9230 C.3    55  ASN55       0.1785
     92  C         23.9330   -3.7210   33.1480 C.2    55  ASN55       0.2598
     93  O         22.8930   -3.5420   33.7830 O.2    55  ASN55      -0.2718
     94  CB        23.0490   -4.0240   30.8310 C.3    55  ASN55       0.1169
     95  CG        23.6250   -2.7510   30.2650 C.2    55  ASN55       0.2627
     96  OD1       24.8490   -2.6130   30.1290 O.2    55  ASN55      -0.2716
     97  ND2       22.7530   -1.8020   29.9300 N.am   55  ASN55      -0.0877
     98  N         25.0810   -3.1510   33.4960 N.am   56  SER56      -0.1938
     99  CA        25.1270   -2.2900   34.6770 C.3    56  SER56       0.2055
    100  C         25.9610   -1.0040   34.5650 C.2    56  SER56       0.2642
    101  O         26.6730   -0.7870   33.5640 O.2    56  SER56      -0.2714
    102  CB        25.5450   -3.1040   35.9140 C.3    56  SER56       0.2130
    103  OG        26.8470   -3.6370   35.7660 O.3    56  SER56      -0.2179
    104  N         25.8180   -0.1480   35.5900 N.am   57  GLU57      -0.1976
    105  CA        26.4990    1.1450   35.7200 C.3    57  GLU57       0.1602
    106  C         26.8870    1.3170   37.1830 C.2    57  GLU57       0.2287
    107  O         26.1200    0.9530   38.0660 O.2    57  GLU57      -0.2864
    108  CB        25.5500    2.2780   35.3230 C.3    57  GLU57       0.0415
    109  CG        25.2750    2.3550   33.8440 C.3    57  GLU57       0.1163
    110  CD        24.1560    3.3080   33.4820 C.2    57  GLU57       0.3649
    111  OE1       23.3430    3.6730   34.3620 O.co2  57  GLU57      -0.2457
    112  OE2       24.0780    3.6780   32.2900 O.co2  57  GLU57      -0.2457
    113  N         13.3420   -0.2130   42.8090 N.3    97  ASP97      -0.1225
    114  CA        12.5150    0.9840   42.9040 C.3    97  ASP97       0.1805
    115  C         11.2160    1.0150   42.1160 C.2    97  ASP97       0.2597
    116  O         10.2090    1.5010   42.6270 O.2    97  ASP97      -0.2718
    117  CB        13.3460    2.2380   42.5770 C.3    97  ASP97       0.1424
    118  CG        13.6700    2.3660   41.0970 C.2    97  ASP97       0.3668
    119  OD1       14.7610    1.9290   40.6860 O.co2  97  ASP97      -0.2456
    120  OD2       12.8370    2.9120   40.3460 O.co2  97  ASP97      -0.2456
    121  N         11.2290    0.4800   40.8990 N.am   98  LEU98      -0.1979
    122  CA        10.0560    0.5160   40.0410 C.3    98  LEU98       0.1596
    123  C          8.7480    0.3590   40.7970 C.2    98  LEU98       0.2287
    124  O          7.8260    1.1480   40.6090 O.2    98  LEU98      -0.2864
    125  CB        10.1830   -0.4880   38.8970 C.3    98  LEU98       0.0297
    126  CG         9.4150   -0.2010   37.5960 C.3    98  LEU98       0.0022
    127  CD1        8.1650   -1.0220   37.5490 C.3    98  LEU98       0.0001
    128  CD2        9.1030    1.2780   37.4230 C.3    98  LEU98       0.0001
@<TRIPOS>BOND
     1    89    87   ar
     2    87    88   ar
     3    87    86    1
     4     9     8    1
     5    84    83    2
     6    97    95   am
     7    86    85    1
     8    96    95    2
     9    95    94    1
    10     8     7    1
    11    94    91    1
    12    83    82    1
    13    80    78   ar
    14    85    82    1
    15     7     6    1
    16    82    81    1
    17    91    90    1
    18    91    92    1
    19    41    40    1
    20   112   110   ar
    21    78    79   ar
    22    78    77    1
    23     6     5    1
    24    16    15   ar
    25    92    98   am
    26    92    93    2
    27    77    74    1
    28    76    75    2
    29    40    38   ar
    30    40    39   ar
    31   110   109    1
    32   110   111   ar
    33    98    99    1
    34   101   100    2
    35    38    36   ar
    36   109   108    1
    37     5     2    1
    38     4     3    2
    39    75    74    1
    40    15    14    1
    41    15    17   ar
    42    39    37   ar
    43    74    73    1
    44   100    99    1
    45   100   104   am
    46    99   102    1
    47     3     2    1
    48     3    10   am
    49    11    14    1
    50    11    10    1
    51    11    12    1
    52    36    35   ar
    53     2     1    1
    54    73    67   am
    55   108   105    1
    56    13    12    2
    57    12    18   am
    58   104   105    1
    59    37    35   ar
    60   105   106    1
    61   103   102    1
    62    62    64   ar
    63    62    60   ar
    64    35    34    1
    65    59    60   ar
    66    59    57   ar
    67    18    19    1
    68    64    63   ar
    69    70    72    1
    70    70    69    1
    71    67    66    1
    72    67    68    2
    73    60    58   ar
    74    21    20    2
    75    66    69    1
    76    66    65    1
    77   106   107    2
    78    57    56   ar
    79    20    19    1
    80    20    30   am
    81    19    22    1
    82   128   126    1
    83    54    53    2
    84    34    31    1
    85   127   126    1
    86    69    71    1
    87   126   125    1
    88    63    61   ar
    89    30    31    1
    90    58    56   ar
    91    58    61   ar
    92    31    32    1
    93    56    55    1
    94    65    53   am
    95    53    52    1
    96    24    26   ar
    97    24    23   ar
    98    26    28   ar
    99    22    23    1
   100    23    25   ar
   101    28    29    1
   102    28    27   ar
   103   125   122    1
   104    25    27   ar
   105    32    33    2
   106    55    52    1
   107    52    51    1
   108   122   123    1
   109   122   121    1
   110   120   118   ar
   111   124   123    2
   112   119   118   ar
   113   121   115   am
   114   118   117    1
   115   115   116    2
   116   115   114    1
   117    42    43    1
   118    46    43    1
   119    46    47    1
   120    49    48    2
   121   117   114    1
   122    43    44    1
   123   113   114    1
   124    48    47    1
   125    48    50   am
   126    44    45    2
