@<TRIPOS>MOLECULE
tmp/1cu4A00.pdb
 102 98 0 0 0
SMALL
GASTEIGER

@<TRIPOS>ATOM
      1  N         15.0620   16.7150   33.1700 N.3    31  ASP31      -0.1239
      2  CA        15.7800   16.0760   32.0920 C.3    31  ASP31       0.1674
      3  C         15.2540   16.5990   30.7520 C.2    31  ASP31       0.2266
      4  O         14.1320   17.1080   30.6640 O.2    31  ASP31      -0.2867
      5  CB        15.6410   14.5560   32.1590 C.3    31  ASP31       0.1410
      6  CG        16.5850   13.8620   31.2160 C.2    31  ASP31       0.3668
      7  OD1       17.8110   14.0230   31.3900 O.co2  31  ASP31      -0.2456
      8  OD2       16.1090   13.1980   30.2760 O.co2  31  ASP31      -0.2456
      9  N         11.0160   15.1140   31.9980 N.3    35  LYS35      -0.1245
     10  CA        10.8540   14.4270   33.2720 C.3    35  LYS35       0.1561
     11  C         11.7890   14.9410   34.3760 C.2    35  LYS35       0.2260
     12  O         12.9570   15.2330   34.1190 O.2    35  LYS35      -0.2867
     13  CB        11.1600   12.9500   33.0600 C.3    35  LYS35       0.0271
     14  CG        10.2100   12.0020   33.7090 C.3    35  LYS35       0.0035
     15  CD         9.0920   11.6850   32.7600 C.3    35  LYS35       0.0206
     16  CE         8.3110   10.4660   33.2190 C.3    35  LYS35       0.1093
     17  NZ         9.1080    9.1960   33.2270 N.3    35  LYS35      -0.1314
     18  N         13.3460   13.5810   37.6100 N.3    37  TYR37      -0.1241
     19  CA        13.5830   12.3740   38.3650 C.3    37  TYR37       0.1605
     20  C         14.0170   12.6480   39.8020 C.2    37  TYR37       0.2264
     21  O         15.2020   12.5320   40.1430 O.2    37  TYR37      -0.2867
     22  CB        14.6200   11.5380   37.6250 C.3    37  TYR37       0.0534
     23  CG        14.2160   11.1570   36.2050 C.ar   37  TYR37      -0.0201
     24  CD1       14.6960   11.8630   35.1040 C.ar   37  TYR37      -0.0009
     25  CD2       13.4030   10.0450   35.9620 C.ar   37  TYR37      -0.0009
     26  CE1       14.3850   11.4650   33.8010 C.ar   37  TYR37       0.0417
     27  CE2       13.0910    9.6380   34.6660 C.ar   37  TYR37       0.0417
     28  CZ        13.5860   10.3450   33.5880 C.ar   37  TYR37       0.1957
     29  OH        13.3190    9.9080   32.3010 O.3    37  TYR37      -0.2866
     30  N         12.7840   12.0340   44.0450 N.3    39  ILE39      -0.1245
     31  CA        11.9140   11.3070   44.9530 C.3    39  ILE39       0.1561
     32  C         12.1960   11.6320   46.4160 C.2    39  ILE39       0.2260
     33  O         13.2470   12.1600   46.7520 O.2    39  ILE39      -0.2867
     34  CB        12.0820    9.7650   44.7860 C.3    39  ILE39       0.0252
     35  CG1       13.4610    9.3130   45.2800 C.3    39  ILE39       0.0019
     36  CG2       11.9220    9.3420   43.3350 C.3    39  ILE39       0.0019
     37  CD1       13.5890    7.8090   45.4340 C.3    39  ILE39       0.0001
     38  N          9.7740    4.4240   49.7820 N.3    51  ARG51      -0.1245
     39  CA         9.6000    5.6240   48.9720 C.3    51  ARG51       0.1563
     40  C          8.2040    6.1900   49.2140 C.2    51  ARG51       0.2260
     41  O          7.2220    5.4510   49.2970 O.2    51  ARG51      -0.2867
     42  CB         9.8050    5.3370   47.4800 C.3    51  ARG51       0.0307
     43  CG         9.9560    6.5930   46.6380 C.3    51  ARG51       0.0489
     44  CD        10.3390    6.2880   45.2100 C.3    51  ARG51       0.2205
     45  NE         9.2090    5.7740   44.4450 N.pl3  51  ARG51      -0.0865
     46  CZ         9.2460    4.6560   43.7340 C.cat  51  ARG51       0.5346
     47  NH1       10.3530    3.9350   43.6940 N.pl3  51  ARG51       0.1354
     48  NH2        8.1780    4.2570   43.0670 N.pl3  51  ARG51       0.1354
     49  N          7.5240   10.0100   44.1560 N.3    54  PHE54      -0.1227
     50  CA         8.5020    9.8620   43.0730 C.3    54  PHE54       0.1736
     51  C          8.1310   10.8020   41.9370 C.2    54  PHE54       0.2595
     52  O          6.9680   11.1670   41.7920 O.2    54  PHE54      -0.2718
     53  CB         8.5760    8.4160   42.5530 C.3    54  PHE54       0.0547
     54  CG         7.3320    7.9470   41.8410 C.ar   54  PHE54      -0.0202
     55  CD1        7.2220    8.0630   40.4570 C.ar   54  PHE54      -0.0042
     56  CD2        6.2710    7.3880   42.5570 C.ar   54  PHE54      -0.0042
     57  CE1        6.0840    7.6380   39.7960 C.ar   54  PHE54      -0.0003
     58  CE2        5.1310    6.9600   41.9070 C.ar   54  PHE54      -0.0003
     59  CZ         5.0360    7.0860   40.5200 C.ar   54  PHE54      -0.0000
     60  N          9.1070   11.1820   41.1220 N.am   55  LEU55      -0.1980
     61  CA         8.8530   12.0870   40.0130 C.3    55  LEU55       0.1596
     62  C          8.2600   13.3650   40.5650 C.2    55  LEU55       0.2287
     63  O          7.2980   13.8970   40.0210 O.2    55  LEU55      -0.2864
     64  CB         7.8880   11.4640   38.9980 C.3    55  LEU55       0.0297
     65  CG         8.3680   10.4730   37.9340 C.3    55  LEU55       0.0022
     66  CD1        7.1880    9.7180   37.3880 C.3    55  LEU55       0.0001
     67  CD2        9.1030   11.1870   36.8160 C.3    55  LEU55       0.0001
     68  N         15.9170   12.4200   46.8750 N.3    94  TRP94      -0.1241
     69  CA        16.7810   11.6150   46.0490 C.3    94  TRP94       0.1605
     70  C         16.6180   11.9300   44.5650 C.2    94  TRP94       0.2264
     71  O         15.5200   11.8380   44.0080 O.2    94  TRP94      -0.2867
     72  CB        16.4340   10.1590   46.3720 C.3    94  TRP94       0.0550
     73  CG        17.3810    9.0930   45.9310 C.ar   94  TRP94       0.0003
     74  CD1       18.1340    9.0660   44.7940 C.ar   94  TRP94       0.0946
     75  CD2       17.5980    7.8380   46.5820 C.ar   94  TRP94       0.0152
     76  NE1       18.7950    7.8640   44.6900 N.ar   94  TRP94      -0.2442
     77  CE2       18.4810    7.0930   45.7740 C.ar   94  TRP94       0.0810
     78  CE3       17.1220    7.2680   47.7680 C.ar   94  TRP94       0.0012
     79  CZ2       18.8950    5.8170   46.1090 C.ar   94  TRP94       0.0191
     80  CZ3       17.5340    6.0010   48.0980 C.ar   94  TRP94       0.0001
     81  CH2       18.4120    5.2870   47.2700 C.ar   94  TRP94       0.0015
     82  N         17.6590   11.3130   40.5390 N.3    96  GLY96      -0.1210
     83  CA        18.0940   10.2550   39.6650 C.3    96  GLY96       0.1956
     84  C         18.1910   10.7510   38.2460 C.2    96  GLY96       0.2612
     85  O         18.2750    9.9270   37.3360 O.2    96  GLY96      -0.2717
     86  N         18.1510   12.0760   38.0610 N.am   97  THR97      -0.1952
     87  CA        18.2330   12.7090   36.7360 C.3    97  THR97       0.1897
     88  C         19.6640   12.7200   36.2030 C.2    97  THR97       0.2313
     89  O         19.9110   12.5000   35.0100 O.2    97  THR97      -0.2863
     90  CB        17.6960   14.1680   36.7680 C.3    97  THR97       0.1794
     91  OG1       16.3070   14.1630   37.1130 O.3    97  THR97      -0.2208
     92  CG2       17.8450   14.8300   35.4230 C.3    97  THR97       0.0378
     93  N         23.3850    8.9660   40.9970 N.3   101  HIS101     -0.1241
     94  CA        22.2800    9.4030   41.8280 C.3   101  HIS101      0.1621
     95  C         22.8010    9.8300   43.1930 C.2   101  HIS101      0.2264
     96  O         23.6420    9.1560   43.7920 O.2   101  HIS101     -0.2867
     97  CB        21.2510    8.2790   41.9560 C.3   101  HIS101      0.0745
     98  CG        20.7800    7.7400   40.6360 C.ar  101  HIS101      0.0817
     99  ND1       19.7120    6.8750   40.5200 N.ar  101  HIS101     -0.2268
    100  CD2       21.2280    7.9500   39.3740 C.ar  101  HIS101      0.1154
    101  CE1       19.5200    6.5800   39.2460 C.ar  101  HIS101      0.1986
    102  NE2       20.4270    7.2180   38.5300 N.ar  101  HIS101     -0.2212
@<TRIPOS>BOND
     1     8     6   ar
     2     4     3    2
     3     3     2    1
     4     6     7   ar
     5     6     5    1
     6     9    10    1
     7     2     5    1
     8     2     1    1
     9    29    28    1
    10    15    16    1
    11    15    14    1
    12    13    10    1
    13    13    14    1
    14    16    17    1
    15    10    11    1
    16    28    26   ar
    17    28    27   ar
    18    26    24   ar
    19    12    11    2
    20    27    25   ar
    21    89    88    2
    22    24    23   ar
    23    92    90    1
    24    25    23   ar
    25    88    87    1
    26    23    22    1
    27    87    90    1
    28    87    86    1
    29    90    91    1
    30    67    65    1
    31    85    84    2
    32    66    65    1
    33    18    19    1
    34    22    19    1
    35    65    64    1
    36    86    84   am
    37    84    83    1
    38    19    20    1
    39   102   101   ar
    40   102   100   ar
    41    64    61    1
    42   101    99   ar
    43   100    98   ar
    44    83    82    1
    45    57    55   ar
    46    57    59   ar
    47    20    21    2
    48    61    62    1
    49    61    60    1
    50    63    62    2
    51    55    54   ar
    52    99    98   ar
    53    59    58   ar
    54    98    97    1
    55    93    94    1
    56    60    51   am
    57    52    51    2
    58    94    97    1
    59    94    95    1
    60    54    53    1
    61    54    56   ar
    62    58    56   ar
    63    51    50    1
    64    53    50    1
    65    48    46    1
    66    50    49    1
    67    95    96    2
    68    36    34    1
    69    47    46    1
    70    46    45    2
    71    71    70    2
    72    30    31    1
    73    45    44    1
    74    70    69    1
    75    76    74   ar
    76    76    77   ar
    77    34    31    1
    78    34    35    1
    79    74    73   ar
    80    31    32    1
    81    44    43    1
    82    35    37    1
    83    77    79   ar
    84    77    75   ar
    85    73    72    1
    86    73    75   ar
    87    69    72    1
    88    69    68    1
    89    79    81   ar
    90    32    33    2
    91    75    78   ar
    92    43    42    1
    93    81    80   ar
    94    42    39    1
    95    78    80   ar
    96    39    40    1
    97    39    38    1
    98    40    41    2
