@<TRIPOS>MOLECULE
tmp/1culB01.pdb
 108 103 0 0 0
SMALL
GASTEIGER

@<TRIPOS>ATOM
      1  N         56.4580  -15.2810   41.6030 N.3    12  PHE12      -0.1241
      2  CA        55.2380  -14.6670   42.1270 C.3    12  PHE12       0.1605
      3  C         54.6260  -13.8640   40.9820 C.2    12  PHE12       0.2264
      4  O         55.2880  -12.9970   40.3920 O.2    12  PHE12      -0.2867
      5  CB        55.5220  -13.7410   43.3150 C.3    12  PHE12       0.0534
      6  CG        55.7530  -14.4660   44.5930 C.ar   12  PHE12      -0.0203
      7  CD1       57.0330  -14.8710   44.9550 C.ar   12  PHE12      -0.0042
      8  CD2       54.6870  -14.7850   45.4240 C.ar   12  PHE12      -0.0042
      9  CE1       57.2540  -15.5900   46.1330 C.ar   12  PHE12      -0.0003
     10  CE2       54.8910  -15.5090   46.6120 C.ar   12  PHE12      -0.0003
     11  CZ        56.1790  -15.9110   46.9630 C.ar   12  PHE12      -0.0000
     12  N         51.2030  -22.4530   45.7560 N.3    61  LYS61      -0.1245
     13  CA        49.9350  -21.9960   46.3300 C.3    61  LYS61       0.1561
     14  C         49.4520  -20.7360   45.6200 C.2    61  LYS61       0.2260
     15  O         50.0040  -20.3250   44.6010 O.2    61  LYS61      -0.2867
     16  CB        50.1620  -21.6200   47.7980 C.3    61  LYS61       0.0271
     17  CG        51.0680  -20.3930   47.9450 C.3    61  LYS61       0.0035
     18  CD        51.2440  -19.9640   49.3690 C.3    61  LYS61       0.0206
     19  CE        52.2140  -20.8620   50.0810 C.3    61  LYS61       0.1093
     20  NZ        52.2840  -20.4900   51.5060 N.3    61  LYS61      -0.1314
     21  N         48.1920  -16.7460   46.7760 N.3    63  ILE63      -0.1245
     22  CA        48.0420  -15.8070   47.8820 C.3    63  ILE63       0.1561
     23  C         47.0780  -14.7400   47.3560 C.2    63  ILE63       0.2260
     24  O         47.4890  -13.7940   46.6770 O.2    63  ILE63      -0.2867
     25  CB        49.4050  -15.1680   48.2920 C.3    63  ILE63       0.0252
     26  CG1       50.4480  -16.2420   48.6160 C.3    63  ILE63       0.0019
     27  CG2       49.2470  -14.2730   49.5100 C.3    63  ILE63       0.0019
     28  CD1       51.3780  -16.5630   47.4610 C.3    63  ILE63       0.0001
     29  N         51.8740  -18.4970   42.9480 N.3    68  MET68      -0.1245
     30  CA        53.2390  -18.8000   43.3730 C.3    68  MET68       0.1570
     31  C         53.6420  -20.1720   42.8690 C.2    68  MET68       0.2261
     32  O         52.9090  -21.1410   43.0500 O.2    68  MET68      -0.2867
     33  CB        53.3470  -18.7470   44.8960 C.3    68  MET68       0.0387
     34  CG        54.6570  -19.2510   45.4700 C.3    68  MET68       0.0595
     35  SD        54.5960  -19.2430   47.2700 S.3    68  MET68      -0.1393
     36  CE        56.3030  -19.5190   47.6940 C.3    68  MET68       0.0692
     37  N         55.3370  -26.3860   51.1590 N.3   131  ASP131     -0.1225
     38  CA        55.7070  -24.9910   50.9720 C.3   131  ASP131      0.1805
     39  C         57.2340  -24.8740   50.8680 C.2   131  ASP131      0.2598
     40  O         57.9420  -25.8460   51.0940 O.2   131  ASP131     -0.2718
     41  CB        55.2150  -24.2020   52.1870 C.3   131  ASP131      0.1424
     42  CG        54.8550  -22.7570   51.8630 C.2   131  ASP131      0.3668
     43  OD1       54.1620  -22.1470   52.6990 O.co2 131  ASP131     -0.2456
     44  OD2       55.2430  -22.2290   50.7990 O.co2 131  ASP131     -0.2456
     45  N         57.7390  -23.7040   50.4830 N.am  132  ILE132     -0.1966
     46  CA        59.1830  -23.4950   50.3870 C.3   132  ILE132      0.1727
     47  C         59.5360  -22.2350   51.1560 C.2   132  ILE132      0.2616
     48  O         58.7610  -21.2860   51.1730 O.2   132  ILE132     -0.2715
     49  CB        59.6660  -23.3850   48.9270 C.3   132  ILE132      0.0290
     50  CG1       58.8790  -22.3060   48.1820 C.3   132  ILE132      0.0022
     51  CG2       59.5480  -24.7320   48.2140 C.3   132  ILE132      0.0023
     52  CD1       59.3890  -22.0510   46.7860 C.3   132  ILE132      0.0001
     53  N         60.7000  -22.2230   51.7980 N.am  133  TRP133     -0.1960
     54  CA        61.1020  -21.0710   52.5960 C.3   133  TRP133      0.1771
     55  C         62.5210  -20.6480   52.3240 C.2   133  TRP133      0.2620
     56  O         63.3380  -21.4380   51.8540 O.2   133  TRP133     -0.2715
     57  CB        60.9940  -21.3870   54.0950 C.3   133  TRP133      0.0590
     58  CG        59.6170  -21.6880   54.5710 C.ar  133  TRP133      0.0006
     59  CD1       58.6920  -20.7940   55.0060 C.ar  133  TRP133      0.0946
     60  CD2       58.9930  -22.9810   54.6310 C.ar  133  TRP133      0.0152
     61  NE1       57.5220  -21.4420   55.3300 N.ar  133  TRP133     -0.2442
     62  CE2       57.6810  -22.7840   55.1080 C.ar  133  TRP133      0.0810
     63  CE3       59.4150  -24.2800   54.3270 C.ar  133  TRP133      0.0012
     64  CZ2       56.7840  -23.8430   55.2850 C.ar  133  TRP133      0.0191
     65  CZ3       58.5280  -25.3320   54.5030 C.ar  133  TRP133      0.0001
     66  CH2       57.2240  -25.1060   54.9780 C.ar  133  TRP133      0.0015
     67  N         62.8180  -19.4010   52.6710 N.am  134  GLY134     -0.1954
     68  CA        64.1570  -18.8840   52.4850 C.3   134  GLY134      0.1869
     69  C         64.2280  -17.4570   51.9760 C.2   134  GLY134      0.2309
     70  O         63.2460  -16.9070   51.4620 O.2   134  GLY134     -0.2863
     71  N         63.0530  -17.0000   48.4870 N.3   137  VAL137     -0.1231
     72  CA        61.6100  -16.8810   48.3350 C.3   137  VAL137      0.1692
     73  C         61.1580  -15.4530   48.6580 C.2   137  VAL137      0.2592
     74  O         60.2960  -14.9110   47.9710 O.2   137  VAL137     -0.2718
     75  CB        60.8550  -17.9130   49.2120 C.3   137  VAL137      0.0266
     76  CG1       59.3730  -17.9290   48.8710 C.3   137  VAL137      0.0020
     77  CG2       61.4480  -19.3010   49.0440 C.3   137  VAL137      0.0020
     78  N         61.7660  -14.8320   49.6710 N.am  138  ASN138     -0.1974
     79  CA        61.4120  -13.4570   50.0580 C.3   138  ASN138      0.1688
     80  C         61.7260  -12.4480   48.9570 C.2   138  ASN138      0.2292
     81  O         60.8990  -11.5960   48.6430 O.2   138  ASN138     -0.2864
     82  CB        62.1040  -13.0290   51.3650 C.3   138  ASN138      0.1181
     83  CG        61.7460  -13.9170   52.5490 C.2   138  ASN138      0.2629
     84  OD1       60.6970  -14.5660   52.5710 O.2   138  ASN138     -0.2716
     85  ND2       62.6220  -13.9440   53.5430 N.am  138  ASN138     -0.0877
     86  N         59.4200  -12.5470   45.9970 N.3   141  SER141     -0.1202
     87  CA        58.1930  -11.8420   46.3380 C.3   141  SER141      0.2020
     88  C         58.3730  -10.3330   46.2270 C.2   141  SER141      0.2618
     89  O         57.4720   -9.6420   45.7580 O.2   141  SER141     -0.2717
     90  CB        57.7000  -12.2320   47.7330 C.3   141  SER141      0.2103
     91  OG        56.4770  -11.5850   48.0420 O.3   141  SER141     -0.2182
     92  N         59.5250   -9.8210   46.6530 N.am  142  ARG142     -0.1979
     93  CA        59.7830   -8.3850   46.5530 C.3   142  ARG142      0.1597
     94  C         59.8730   -7.9590   45.0790 C.2   142  ARG142      0.2287
     95  O         59.4610   -6.8560   44.7080 O.2   142  ARG142     -0.2864
     96  CB        61.0540   -8.0000   47.3060 C.3   142  ARG142      0.0334
     97  CG        60.9540   -8.0980   48.8270 C.3   142  ARG142      0.0492
     98  CD        60.0210   -7.0360   49.4160 C.3   142  ARG142      0.2205
     99  NE        60.2660   -6.8310   50.8480 N.pl3 142  ARG142     -0.0865
    100  CZ        59.3440   -6.9130   51.8080 C.cat 142  ARG142      0.5346
    101  NH1       58.0830   -7.2020   51.5170 N.pl3 142  ARG142      0.1354
    102  NH2       59.6940   -6.7140   53.0720 N.pl3 142  ARG142      0.1354
    103  N         56.2140   -7.3980   44.3490 N.3   145  SER145     -0.1217
    104  CA        55.6720   -6.2520   45.0730 C.3   145  SER145      0.1889
    105  C         56.2470   -4.8870   44.6780 C.2   145  SER145      0.2288
    106  O         55.6270   -3.8540   44.9380 O.2   145  SER145     -0.2866
    107  CB        55.7470   -6.4670   46.5820 C.3   145  SER145      0.2089
    108  OG        57.0880   -6.5510   47.0200 O.3   145  SER145     -0.2183
@<TRIPOS>BOND
     1     4     3    2
     2     3     2    1
     3     1     2    1
     4     2     5    1
     5    31    32    2
     6    31    30    1
     7    29    30    1
     8     5     6    1
     9    30    33    1
    10   103   104    1
    11     6     7   ar
    12     6     8   ar
    13    15    14    2
    14   105   106    2
    15   105   104    1
    16    95    94    2
    17    33    34    1
    18     7     9   ar
    19   104   107    1
    20    94    93    1
    21     8    10   ar
    22    34    35    1
    23    14    13    1
    24    12    13    1
    25    89    88    2
    26    86    87    1
    27     9    11   ar
    28    88    87    1
    29    88    92   am
    30    13    16    1
    31    87    90    1
    32    93    92    1
    33    93    96    1
    34   107   108    1
    35    10    11   ar
    36    24    23    2
    37    21    22    1
    38    52    50    1
    39    35    36    1
    40    96    97    1
    41    23    22    1
    42    28    26    1
    43    90    91    1
    44    16    17    1
    45    22    25    1
    46    17    18    1
    47    74    73    2
    48    50    49    1
    49    51    49    1
    50    25    26    1
    51    25    27    1
    52    72    71    1
    53    72    73    1
    54    72    75    1
    55    81    80    2
    56    73    78   am
    57    97    98    1
    58    76    75    1
    59    49    46    1
    60    80    79    1
    61    77    75    1
    62    18    19    1
    63    98    99    1
    64    78    79    1
    65    79    82    1
    66    19    20    1
    67    46    45    1
    68    46    47    1
    69    45    39   am
    70    44    42   ar
    71    99   100    2
    72    39    38    1
    73    39    40    2
    74    38    37    1
    75    38    41    1
    76    47    48    2
    77    47    53   am
    78    82    83    1
    79    70    69    2
    80   101   100    1
    81    53    54    1
    82   100   102    1
    83    56    55    2
    84    42    41    1
    85    42    43   ar
    86    69    68    1
    87    55    54    1
    88    55    67   am
    89    68    67    1
    90    83    84    2
    91    83    85   am
    92    54    57    1
    93    57    58    1
    94    63    65   ar
    95    63    60   ar
    96    65    66   ar
    97    58    60   ar
    98    58    59   ar
    99    60    62   ar
   100    66    64   ar
   101    59    61   ar
   102    62    64   ar
   103    62    61   ar
