@<TRIPOS>MOLECULE
tmp/1cv0A00.pdb
 88 84 0 0 0
SMALL
GASTEIGER

@<TRIPOS>ATOM
      1  N         38.7260    1.0770   11.3050 N.3     3  ILE3       -0.1231
      2  CA        38.1750    2.4260   11.4010 C.3     3  ILE3        0.1692
      3  C         39.0360    3.3540   12.2350 C.2     3  ILE3        0.2592
      4  O         39.3080    4.5040   11.8980 O.2     3  ILE3       -0.2718
      5  CB        36.6590    2.4460   11.7440 C.3     3  ILE3        0.0266
      6  CG1       36.1100    3.8610   11.6130 C.3     3  ILE3        0.0019
      7  CG2       36.3350    1.8460   13.1200 C.3     3  ILE3        0.0020
      8  CD1       36.3070    4.4810   10.2040 C.3     3  ILE3        0.0001
      9  N         39.5540    2.7900   13.3070 N.am    4  PHE4       -0.1976
     10  CA        40.3310    3.6320   14.1870 C.3     4  PHE4        0.1639
     11  C         41.5630    4.1300   13.5560 C.2     4  PHE4        0.2290
     12  O         41.9230    5.3050   13.6590 O.2     4  PHE4       -0.2864
     13  CB        40.6030    2.9390   15.5130 C.3     4  PHE4        0.0560
     14  CG        39.3260    2.8970   16.3130 C.ar    4  PHE4       -0.0200
     15  CD1       38.4830    1.7800   16.2790 C.ar    4  PHE4       -0.0042
     16  CD2       39.0140    3.9710   17.1470 C.ar    4  PHE4       -0.0042
     17  CE1       37.2880    1.7740   16.9970 C.ar    4  PHE4       -0.0003
     18  CE2       37.8640    3.9400   17.9290 C.ar    4  PHE4       -0.0003
     19  CZ        37.0090    2.8450   17.8510 C.ar    4  PHE4       -0.0000
     20  N         33.8720    7.9130   17.6880 N.3    71  VAL71      -0.1245
     21  CA        33.6190    6.8510   16.7170 C.3    71  VAL71       0.1561
     22  C         32.2620    6.2100   16.9940 C.2    71  VAL71       0.2260
     23  O         31.4460    5.8900   16.1200 O.2    71  VAL71      -0.2867
     24  CB        34.7730    5.7990   16.6150 C.3    71  VAL71       0.0252
     25  CG1       34.3590    4.5890   15.7130 C.3    71  VAL71       0.0019
     26  CG2       36.0250    6.4810   16.0230 C.3    71  VAL71       0.0019
     27  N         28.8820    5.7850   14.5030 N.3    75  VAL75      -0.1245
     28  CA        28.1640    4.6220   14.0840 C.3    75  VAL75       0.1561
     29  C         26.7020    4.7760   14.4360 C.2    75  VAL75       0.2260
     30  O         25.7800    4.4300   13.6590 O.2    75  VAL75      -0.2867
     31  CB        28.7270    3.4040   14.7510 C.3    75  VAL75       0.0252
     32  CG1       27.8600    2.1560   14.4460 C.3    75  VAL75       0.0019
     33  CG2       30.1070    3.2300   14.1660 C.3    75  VAL75       0.0019
     34  N         24.3520    1.6500    4.9640 N.3    88  TYR88      -0.1241
     35  CA        25.3400    1.0010    5.7680 C.3    88  TYR88       0.1605
     36  C         25.0480   -0.4750    5.8430 C.2    88  TYR88       0.2264
     37  O         25.9550   -1.3000    5.7120 O.2    88  TYR88      -0.2867
     38  CB        25.2470    1.6460    7.1570 C.3    88  TYR88       0.0534
     39  CG        26.3000    1.1280    8.1250 C.ar   88  TYR88      -0.0201
     40  CD1       25.9830    0.0950    9.0040 C.ar   88  TYR88      -0.0009
     41  CD2       27.5380    1.7650    8.2370 C.ar   88  TYR88      -0.0009
     42  CE1       26.9040   -0.3210    9.9610 C.ar   88  TYR88       0.0417
     43  CE2       28.4720    1.3730    9.1950 C.ar   88  TYR88       0.0417
     44  CZ        28.1430    0.3240   10.0530 C.ar   88  TYR88       0.1957
     45  OH        29.0590   -0.1050   10.9620 O.3    88  TYR88      -0.2866
     46  N         32.2590   -4.7960    5.1090 N.3    93  ALA93      -0.1245
     47  CA        33.0210   -4.2320    6.2030 C.3    93  ALA93       0.1562
     48  C         33.9490   -3.0900    5.8170 C.2    93  ALA93       0.2260
     49  O         33.9510   -2.0660    6.5020 O.2    93  ALA93      -0.2867
     50  CB        33.6610   -5.2800    7.1470 C.3    93  ALA93       0.0290
     51  N         32.0030    0.0400    4.8420 N.3    96  ARG96      -0.1231
     52  CA        31.2680    0.6520    5.9870 C.3    96  ARG96       0.1694
     53  C         32.1780    1.6500    6.6870 C.2    96  ARG96       0.2591
     54  O         31.7580    2.7470    7.0890 O.2    96  ARG96      -0.2718
     55  CB        30.8490   -0.4360    7.0150 C.3    96  ARG96       0.0321
     56  CG        29.6180   -1.1970    6.5260 C.3    96  ARG96       0.0489
     57  CD        29.1170   -2.2580    7.5270 C.3    96  ARG96       0.2205
     58  NE        27.9090   -2.9150    7.0380 N.pl3  96  ARG96      -0.0865
     59  CZ        27.3890   -4.0510    7.4980 C.cat  96  ARG96       0.5346
     60  NH1       27.9530   -4.6950    8.4910 N.pl3  96  ARG96       0.1354
     61  NH2       26.3060   -4.5910    6.9020 N.pl3  96  ARG96       0.1354
     62  N         33.4590    1.2370    6.7180 N.am   97  ALA97      -0.1980
     63  CA        34.4290    2.0640    7.3440 C.3    97  ALA97       0.1597
     64  C         34.4690    3.3350    6.5770 C.2    97  ALA97       0.2287
     65  O         34.5440    4.3880    7.1700 O.2    97  ALA97      -0.2864
     66  CB        35.8120    1.4190    7.4290 C.3    97  ALA97       0.0319
     67  N         31.6120    5.5330    7.5690 N.3   100  ILE100     -0.1245
     68  CA        31.7350    6.0820    8.9000 C.3   100  ILE100      0.1561
     69  C         32.6850    7.3290    8.9140 C.2   100  ILE100      0.2260
     70  O         32.4630    8.3710    9.5280 O.2   100  ILE100     -0.2867
     71  CB        32.2680    4.9740    9.7380 C.3   100  ILE100      0.0252
     72  CG1       31.2330    3.8490    9.9690 C.3   100  ILE100      0.0019
     73  CG2       32.8390    5.5230   11.0420 C.3   100  ILE100      0.0019
     74  CD1       31.8960    2.7410   10.8020 C.3   100  ILE100      0.0001
     75  N         41.7360   -1.5240    1.4080 N.3   158  TRP158     -0.1241
     76  CA        42.5010   -0.5430    2.1610 C.3   158  TRP158      0.1605
     77  C         43.6910   -0.0490    1.3410 C.2   158  TRP158      0.2264
     78  O         44.5310    0.7070    1.8150 O.2   158  TRP158     -0.2867
     79  CB        43.0270   -1.1970    3.4870 C.3   158  TRP158      0.0550
     80  CG        41.9650   -1.5740    4.5340 C.ar  158  TRP158      0.0003
     81  CD1       41.6550   -2.8390    4.8630 C.ar  158  TRP158      0.0946
     82  CD2       41.0180   -0.7370    5.2960 C.ar  158  TRP158      0.0152
     83  NE1       40.6320   -2.8570    5.7780 N.ar  158  TRP158     -0.2442
     84  CE2       40.1650   -1.6160    6.0090 C.ar  158  TRP158      0.0810
     85  CE3       40.7610    0.6460    5.4100 C.ar  158  TRP158      0.0012
     86  CZ2       39.1570   -1.1880    6.8730 C.ar  158  TRP158      0.0191
     87  CZ3       39.7520    1.0560    6.2690 C.ar  158  TRP158      0.0001
     88  CH2       38.9890    0.1470    7.0390 C.ar  158  TRP158      0.0015
@<TRIPOS>BOND
     1    77    78    2
     2    77    76    1
     3    75    76    1
     4    76    79    1
     5    79    80    1
     6    80    81   ar
     7    80    82   ar
     8    51    52    1
     9    81    83   ar
    10    34    35    1
    11    46    47    1
    12    82    85   ar
    13    82    84   ar
    14    85    87   ar
    15    37    36    2
    16    35    36    1
    17    35    38    1
    18    83    84   ar
    19    48    47    1
    20    48    49    2
    21    52    53    1
    22    52    55    1
    23    84    86   ar
    24    47    50    1
    25    87    88   ar
    26    56    55    1
    27    56    57    1
    28    64    65    2
    29    64    63    1
    30    53    62   am
    31    53    54    2
    32    62    63    1
    33    86    88   ar
    34    61    59    1
    35    58    59    2
    36    58    57    1
    37    38    39    1
    38    63    66    1
    39    59    60    1
    40    67    68    1
    41    39    41   ar
    42    39    40   ar
    43    41    43   ar
    44    68    69    1
    45    68    71    1
    46    69    70    2
    47    40    42   ar
    48    43    44   ar
    49    71    72    1
    50    71    73    1
    51    42    44   ar
    52    72    74    1
    53    44    45    1
    54     8     6    1
    55     1     2    1
    56     2     5    1
    57     2     3    1
    58     6     5    1
    59     5     7    1
    60     4     3    2
    61     3     9   am
    62     9    10    1
    63    11    12    2
    64    11    10    1
    65    30    29    2
    66    28    29    1
    67    28    27    1
    68    28    31    1
    69    33    31    1
    70    10    13    1
    71    32    31    1
    72    13    14    1
    73    25    24    1
    74    26    24    1
    75    23    22    2
    76    15    14   ar
    77    15    17   ar
    78    14    16   ar
    79    24    21    1
    80    21    22    1
    81    21    20    1
    82    17    19   ar
    83    16    18   ar
    84    19    18   ar
