@<TRIPOS>MOLECULE
tmp/1cv8A00.pdb
 160 157 0 0 0
SMALL
GASTEIGER

@<TRIPOS>ATOM
      1  N        -13.1240   26.0150   -5.4410 N.3    17  GLN17      -0.1245
      2  CA       -14.2640   25.4410   -4.7790 C.3    17  GLN17       0.1566
      3  C        -14.9460   26.2870   -3.7020 C.2    17  GLN17       0.2260
      4  O        -14.2860   26.6060   -2.7050 O.2    17  GLN17      -0.2867
      5  CB       -13.7790   24.0800   -4.1850 C.3    17  GLN17       0.0367
      6  CG       -14.9670   23.3680   -3.5310 C.3    17  GLN17       0.0905
      7  CD       -14.6270   22.0270   -2.8770 C.2    17  GLN17       0.2608
      8  OE1      -13.4400   21.7100   -2.8310 O.2    17  GLN17      -0.2717
      9  NE2      -15.6500   21.3420   -2.4530 N.am   17  GLN17      -0.0878
     10  N        -19.8760   23.5030   -1.9480 N.3    20  ASN20      -0.1225
     11  CA       -20.4330   22.3330   -2.6230 C.3    20  ASN20       0.1785
     12  C        -19.5930   21.1430   -2.2180 C.2    20  ASN20       0.2597
     13  O        -18.5310   21.3840   -1.5910 O.2    20  ASN20      -0.2718
     14  CB       -20.4310   22.5910   -4.1470 C.3    20  ASN20       0.1169
     15  CG       -19.0750   22.9190   -4.7170 C.2    20  ASN20       0.2627
     16  OD1      -18.1070   22.1450   -4.5660 O.2    20  ASN20      -0.2716
     17  ND2      -18.8890   24.0400   -5.4000 N.am   20  ASN20      -0.0877
     18  N        -19.8990   19.9350   -2.5790 N.am   21  GLY21      -0.1957
     19  CA       -19.1160   18.7460   -2.3080 C.3    21  GLY21       0.1869
     20  C        -18.4350   18.2210   -3.5930 C.2    21  GLY21       0.2309
     21  O        -18.3280   17.0150   -3.7560 O.2    21  GLY21      -0.2863
     22  N        -15.2020   18.5370   -4.6650 N.3    23  CYS23      -0.1221
     23  CA       -13.7810   18.5390   -4.7720 C.3    23  CYS23       0.1808
     24  C        -13.2000   17.5680   -5.8220 C.2    23  CYS23       0.2601
     25  O        -12.1840   17.9580   -6.4230 O.2    23  CYS23      -0.2717
     26  CB       -13.1090   18.0990   -3.4320 C.3    23  CYS23       0.0970
     27  SG       -13.5820   16.4290   -2.8530 S.3    23  CYS23      -0.0800
     28  N        -13.7160   16.3860   -5.9700 N.am   24  ALA24      -0.1979
     29  CA       -13.0900   15.4390   -6.9170 C.3    24  ALA24       0.1597
     30  C        -13.3910   15.9140   -8.3880 C.2    24  ALA24       0.2287
     31  O        -12.5840   15.6750   -9.2770 O.2    24  ALA24      -0.2864
     32  CB       -13.6550   14.0520   -6.6680 C.3    24  ALA24       0.0319
     33  N        -23.7200   12.2740  -11.8320 N.3    51  HIS51      -0.1241
     34  CA       -24.9370   12.2740  -11.0420 C.3    51  HIS51       0.1621
     35  C        -26.0570   13.0320  -11.7600 C.2    51  HIS51       0.2264
     36  O        -26.4450   14.1750  -11.4710 O.2    51  HIS51      -0.2867
     37  CB       -24.6700   12.9680   -9.6710 C.3    51  HIS51       0.0745
     38  CG       -23.6080   12.3350   -8.8230 C.ar   51  HIS51       0.0817
     39  ND1      -22.9760   12.9980   -7.7730 N.ar   51  HIS51      -0.2268
     40  CD2      -23.0940   11.0840   -8.8190 C.ar   51  HIS51       0.1154
     41  CE1      -22.1270   12.1760   -7.1810 C.ar   51  HIS51       0.1986
     42  NE2      -22.1740   11.0070   -7.8070 N.ar   51  HIS51      -0.2212
     43  N        -24.1450   18.8170   -2.7620 N.3    61  PHE61      -0.1227
     44  CA       -23.2200   18.3250   -1.7250 C.3    61  PHE61       0.1736
     45  C        -22.7790   16.8950   -1.8100 C.2    61  PHE61       0.2596
     46  O        -21.9380   16.4820   -0.9910 O.2    61  PHE61      -0.2718
     47  CB       -23.8710   18.5740   -0.3220 C.3    61  PHE61       0.0547
     48  CG       -24.0130   20.0510   -0.0560 C.ar   61  PHE61      -0.0202
     49  CD1      -22.8910   20.8350    0.0810 C.ar   61  PHE61      -0.0042
     50  CD2      -25.2510   20.6480    0.0630 C.ar   61  PHE61      -0.0042
     51  CE1      -22.9800   22.1850    0.3220 C.ar   61  PHE61      -0.0003
     52  CE2      -25.3870   22.0090    0.3190 C.ar   61  PHE61      -0.0003
     53  CZ       -24.2400   22.7790    0.4420 C.ar   61  PHE61      -0.0000
     54  N        -23.2430   16.0760   -2.7520 N.am   62  THR62      -0.1939
     55  CA       -22.8670   14.6700   -2.8290 C.3    62  THR62       0.2028
     56  C        -21.5530   14.5860   -3.6290 C.2    62  THR62       0.2643
     57  O        -21.4980   15.0970   -4.7560 O.2    62  THR62      -0.2714
     58  CB       -23.9360   13.7800   -3.4790 C.3    62  THR62       0.1808
     59  OG1      -25.1140   13.8940   -2.6220 O.3    62  THR62      -0.2208
     60  CG2      -23.5520   12.3110   -3.5130 C.3    62  THR62       0.0379
     61  N        -20.5570   14.0470   -2.9700 N.am   63  GLY63      -0.1939
     62  CA       -19.2170   13.9200   -3.5660 C.3    63  GLY63       0.2014
     63  C        -19.0660   12.6470   -4.3630 C.2    63  GLY63       0.2639
     64  O        -20.0760   12.0060   -4.6930 O.2    63  GLY63      -0.2714
     65  N        -17.8510   12.2370   -4.7200 N.am   64  LEU64      -0.1963
     66  CA       -17.6370   11.0330   -5.4920 C.3    64  LEU64       0.1728
     67  C        -16.9700    9.9300   -4.7330 C.2    64  LEU64       0.2617
     68  O        -16.1450   10.1600   -3.8190 O.2    64  LEU64      -0.2715
     69  CB       -16.7090   11.3510   -6.7280 C.3    64  LEU64       0.0311
     70  CG       -17.1940   12.4970   -7.6450 C.3    64  LEU64       0.0022
     71  CD1      -16.2200   12.6010   -8.8370 C.3    64  LEU64       0.0001
     72  CD2      -18.6230   12.2060   -8.1610 C.3    64  LEU64       0.0001
     73  N        -17.1750    8.6890   -5.1760 N.am   65  THR65      -0.1937
     74  CA       -16.3420    7.6060   -4.6950 C.3    65  THR65       0.2013
     75  C        -15.1560    7.4300   -5.6000 C.2    65  THR65       0.2484
     76  O        -15.0900    7.8580   -6.7760 O.2    65  THR65      -0.2729
     77  CB       -17.1080    6.2610   -4.7370 C.3    65  THR65       0.1807
     78  OG1      -17.5470    5.9790   -6.1070 O.3    65  THR65      -0.2208
     79  CG2      -18.3750    6.2870   -3.8950 C.3    65  THR65       0.0379
     80  N        -14.1370    6.6970   -5.1550 N.am   66  PRO66      -0.2726
     81  CA       -12.9740    6.4120   -5.9950 C.3    66  PRO66       0.1402
     82  C        -13.4480    5.6470   -7.2330 C.2    66  PRO66       0.2269
     83  O        -12.8920    5.9160   -8.2990 O.2    66  PRO66      -0.2865
     84  CB       -12.0720    5.5470   -5.1190 C.3    66  PRO66       0.0296
     85  CG       -12.4320    6.0910   -3.7420 C.3    66  PRO66       0.0237
     86  CD       -13.9490    6.1630   -3.7660 C.3    66  PRO66       0.0939
     87  N        -16.2000    6.0060   -8.9250 N.3    68  GLU68      -0.1231
     88  CA       -16.7670    7.0180   -9.8160 C.3    68  GLU68       0.1699
     89  C        -15.6230    7.8140  -10.4320 C.2    68  GLU68       0.2592
     90  O        -15.6770    8.1670  -11.6090 O.2    68  GLU68      -0.2718
     91  CB       -17.7160    8.0010   -9.1390 C.3    68  GLU68       0.0402
     92  CG       -19.0440    7.2870   -8.7210 C.3    68  GLU68       0.1161
     93  CD       -19.9020    8.2550   -7.9480 C.2    68  GLU68       0.3649
     94  OE1      -19.4560    8.7050   -6.8550 O.co2  68  GLU68      -0.2457
     95  OE2      -20.9970    8.6570   -8.3900 O.co2  68  GLU68      -0.2457
     96  N        -14.5600    8.1400   -9.6710 N.am   69  MET69      -0.1979
     97  CA       -13.4360    8.8710  -10.2400 C.3    69  MET69       0.1605
     98  C        -12.7140    8.0680  -11.3290 C.2    69  MET69       0.2287
     99  O        -12.2280    8.6550  -12.3190 O.2    69  MET69      -0.2864
    100  CB       -12.4490    9.2180   -9.0810 C.3    69  MET69       0.0413
    101  CG       -13.1200   10.3200   -8.2180 C.3    69  MET69       0.0598
    102  SD       -11.9200   10.6350   -6.8040 S.3    69  MET69      -0.1393
    103  CE       -10.6700   11.5650   -7.6310 C.3    69  MET69       0.0692
    104  N         -6.2100   11.4640   -2.5410 N.3   105  LEU105     -0.1231
    105  CA        -7.3780   11.1990   -1.7430 C.3   105  LEU105      0.1693
    106  C         -6.9190   11.4590   -0.2420 C.2   105  LEU105      0.2592
    107  O         -6.0080   10.7860    0.1920 O.2   105  LEU105     -0.2718
    108  CB        -7.8800    9.7840   -1.8930 C.3   105  LEU105      0.0284
    109  CG        -8.0930    9.3430   -3.3890 C.3   105  LEU105      0.0019
    110  CD1       -8.7790    7.9800   -3.3230 C.3   105  LEU105      0.0001
    111  CD2       -8.9750   10.3450   -4.0830 C.3   105  LEU105      0.0001
    112  N         -7.5330   12.4510    0.3530 N.am  106  GLY106     -0.1957
    113  CA        -7.1170   12.8410    1.7320 C.3   106  GLY106      0.1869
    114  C         -8.2720   12.6660    2.6880 C.2   106  GLY106      0.2309
    115  O         -9.4550   12.7070    2.3740 O.2   106  GLY106     -0.2863
    116  N        -13.6720   13.4690    3.7490 N.3   118  GLY118     -0.1210
    117  CA       -12.6940   13.1120    2.7130 C.3   118  GLY118      0.1956
    118  C        -12.6160   14.3220    1.7630 C.2   118  GLY118      0.2612
    119  O        -13.6280   14.9970    1.5520 O.2   118  GLY118     -0.2717
    120  N        -11.4250   14.5680    1.2660 N.am  119  HIS119     -0.1961
    121  CA       -11.2200   15.7000    0.3820 C.3   119  HIS119      0.1787
    122  C        -10.1700   15.3420   -0.6460 C.2   119  HIS119      0.2620
    123  O         -9.0540   14.8890   -0.3910 O.2   119  HIS119     -0.2715
    124  CB       -10.7670   16.9390    1.1800 C.3   119  HIS119      0.0785
    125  CG       -10.6460   18.2010    0.3740 C.ar  119  HIS119      0.0821
    126  ND1      -11.7270   18.8240   -0.2250 N.ar  119  HIS119     -0.2267
    127  CD2       -9.5430   18.9450    0.1590 C.ar  119  HIS119      0.1154
    128  CE1      -11.2590   19.9530   -0.7360 C.ar  119  HIS119      0.1986
    129  NE2       -9.9540   20.0630   -0.5610 N.ar  119  HIS119     -0.2212
    130  N        -10.5100   15.5560   -1.9520 N.am  120  ALA120     -0.1977
    131  CA        -9.5780   15.2700   -3.0160 C.3   120  ALA120      0.1597
    132  C         -8.8060   16.4790   -3.5190 C.2   120  ALA120      0.2287
    133  O         -9.3470   17.6120   -3.3890 O.2   120  ALA120     -0.2864
    134  CB       -10.4220   14.7790   -4.2550 C.3   120  ALA120      0.0319
    135  N         -9.8810   24.6440   -3.0380 N.3   142  TRP142     -0.1241
    136  CA       -10.2800   25.9090   -2.4640 C.3   142  TRP142      0.1605
    137  C         -9.3480   27.1100   -2.7470 C.2   142  TRP142      0.2264
    138  O         -9.7540   28.2720   -2.6300 O.2   142  TRP142     -0.2867
    139  CB       -10.1760   25.8380   -0.8680 C.3   142  TRP142      0.0550
    140  CG       -10.8130   24.6270   -0.2070 C.ar  142  TRP142      0.0003
    141  CD1      -11.8520   23.9030   -0.6410 C.ar  142  TRP142      0.0946
    142  CD2      -10.3750   24.0850    1.0230 C.ar  142  TRP142      0.0152
    143  NE1      -12.0770   22.8750    0.3320 N.ar  142  TRP142     -0.2442
    144  CE2      -11.1950   22.9990    1.2990 C.ar  142  TRP142      0.0810
    145  CE3       -9.3540   24.4240    1.9160 C.ar  142  TRP142      0.0012
    146  CZ2      -11.0470   22.2070    2.4440 C.ar  142  TRP142      0.0191
    147  CZ3       -9.2160   23.6250    3.0660 C.ar  142  TRP142      0.0001
    148  CH2      -10.0230   22.5690    3.3170 C.ar  142  TRP142      0.0015
    149  N         -4.0000    9.3390    1.9770 N.3   167  TYR167     -0.1241
    150  CA        -4.0730    7.9140    2.1900 C.3   167  TYR167      0.1605
    151  C         -4.0970    7.0680    0.9520 C.2   167  TYR167      0.2264
    152  O         -3.7110    5.9180    1.0330 O.2   167  TYR167     -0.2867
    153  CB        -5.2640    7.6090    3.1170 C.3   167  TYR167      0.0534
    154  CG        -6.6210    7.7440    2.4960 C.ar  167  TYR167     -0.0201
    155  CD1       -7.2250    6.6760    1.8100 C.ar  167  TYR167     -0.0009
    156  CD2       -7.3050    8.9440    2.5980 C.ar  167  TYR167     -0.0009
    157  CE1       -8.4880    6.8520    1.2110 C.ar  167  TYR167      0.0417
    158  CE2       -8.5670    9.0880    2.0410 C.ar  167  TYR167      0.0417
    159  CZ        -9.1400    8.0350    1.3440 C.ar  167  TYR167      0.1957
    160  OH       -10.3930    8.2760    0.8020 O.3   167  TYR167     -0.2866
@<TRIPOS>BOND
     1    99    98    2
     2    33    34    1
     3    35    36    2
     4    35    34    1
     5    90    89    2
     6    98    97    1
     7    34    37    1
     8    89    88    1
     9    89    96   am
    10    97    96    1
    11    97   100    1
    12    88    91    1
    13    88    87    1
    14    37    38    1
    15    31    30    2
    16    91    92    1
    17   100   101    1
    18    71    70    1
    19    38    40   ar
    20    38    39   ar
    21    40    42   ar
    22    92    93    1
    23    95    93   ar
    24    30    29    1
    25    83    82    2
    26   101   102    1
    27    72    70    1
    28    93    94   ar
    29    42    41   ar
    30    39    41   ar
    31    70    69    1
    32   103   102    1
    33    82    81    1
    34    29    32    1
    35    29    28    1
    36    76    75    2
    37    69    66    1
    38    25    24    2
    39    78    77    1
    40    81    80    1
    41    81    84    1
    42    28    24   am
    43    24    23    1
    44    75    80   am
    45    75    74    1
    46    66    67    1
    47    66    65    1
    48     1     2    1
    49    17    15   am
    50    73    67   am
    51    73    74    1
    52    80    86    1
    53    84    85    1
    54     2     5    1
    55     2     3    1
    56    23    22    1
    57    23    26    1
    58    57    56    2
    59    77    74    1
    60    77    79    1
    61    67    68    2
    62    65    63   am
    63    15    16    2
    64    15    14    1
    65    64    63    2
    66    63    62    1
    67   134   131    1
    68     5     6    1
    69    14    11    1
    70   111   109    1
    71    86    85    1
    72    21    20    2
    73     3     4    2
    74    56    61   am
    75    56    55    1
    76    20    19    1
    77    62    61    1
    78     6     7    1
    79   132   133    2
    80   132   131    1
    81    60    58    1
    82    58    55    1
    83    58    59    1
    84    26    27    1
    85   109   110    1
    86   109   108    1
    87   135   136    1
    88   131   130    1
    89     7     8    2
    90     7     9   am
    91    55    54    1
    92    43    44    1
    93    54    45   am
    94   137   138    2
    95   137   136    1
    96    11    12    1
    97    11    10    1
    98    18    19    1
    99    18    12   am
   100   104   105    1
   101   136   139    1
   102    12    13    2
   103   130   122   am
   104   108   105    1
   105    45    44    1
   106    45    46    2
   107   105   106    1
   108    44    47    1
   109   139   140    1
   110   128   129   ar
   111   128   126   ar
   112   122   123    2
   113   122   121    1
   114   141   140   ar
   115   141   143   ar
   116   129   127   ar
   117    47    48    1
   118   106   107    2
   119   106   112   am
   120   126   125   ar
   121   140   142   ar
   122    48    50   ar
   123    48    49   ar
   124    50    52   ar
   125    49    51   ar
   126   127   125   ar
   127    52    53   ar
   128    51    53   ar
   129   143   144   ar
   130   112   113    1
   131   125   124    1
   132   121   124    1
   133   121   120    1
   134   160   159    1
   135   151   152    2
   136   151   150    1
   137   142   144   ar
   138   142   145   ar
   139   157   159   ar
   140   157   155   ar
   141   120   118   am
   142   144   146   ar
   143   159   158   ar
   144   119   118    2
   145   113   114    1
   146   118   117    1
   147   155   154   ar
   148   145   147   ar
   149   149   150    1
   150   158   156   ar
   151   150   153    1
   152   115   114    2
   153   146   148   ar
   154   154   156   ar
   155   154   153    1
   156   117   116    1
   157   147   148   ar
