@<TRIPOS>MOLECULE
tmp/1cvnC00.pdb
 101 100 0 0 0
SMALL
GASTEIGER

@<TRIPOS>ATOM
      1  N         24.5890  -21.6180    1.4940 N.3    12  TYR12      -0.1228
      2  CA        24.9890  -22.3050    0.2650 C.3    12  TYR12       0.1721
      3  C         26.0280  -21.5340   -0.5650 C.2    12  TYR12       0.2437
      4  O         25.7690  -20.4220   -1.0470 O.2    12  TYR12      -0.2733
      5  CB        23.7530  -22.6020   -0.5920 C.3    12  TYR12       0.0547
      6  CG        24.0320  -23.5510   -1.7300 C.ar   12  TYR12      -0.0200
      7  CD1       24.0050  -24.9320   -1.5300 C.ar   12  TYR12      -0.0009
      8  CD2       24.3670  -23.0720   -2.9960 C.ar   12  TYR12      -0.0009
      9  CE1       24.3030  -25.8090   -2.5580 C.ar   12  TYR12       0.0417
     10  CE2       24.6670  -23.9470   -4.0440 C.ar   12  TYR12       0.0417
     11  CZ        24.6340  -25.3110   -3.8140 C.ar   12  TYR12       0.1957
     12  OH        24.8970  -26.1940   -4.8300 O.3    12  TYR12      -0.2866
     13  N         27.2410  -22.0910   -0.6970 N.am   13  PRO13      -0.2718
     14  CA        28.2540  -21.3840   -1.4840 C.3    13  PRO13       0.1535
     15  C         28.0300  -21.4450   -2.9910 C.2    13  PRO13       0.2599
     16  O         27.8210  -22.5140   -3.5590 O.2    13  PRO13      -0.2715
     17  CB        29.5470  -22.0760   -1.0690 C.3    13  PRO13       0.0310
     18  CG        29.0880  -23.4500   -0.6950 C.3    13  PRO13       0.0237
     19  CD        27.8370  -23.2080    0.0560 C.3    13  PRO13       0.0939
     20  N         27.9600  -20.2710   -3.6080 N.am   14  ASN14      -0.1959
     21  CA        27.7620  -20.1400   -5.0460 C.3    14  ASN14       0.1819
     22  C         29.0670  -19.4820   -5.4290 C.2    14  ASN14       0.2622
     23  O         29.1110  -18.2910   -5.7120 O.2    14  ASN14      -0.2715
     24  CB        26.6060  -19.1870   -5.3670 C.3    14  ASN14       0.1195
     25  CG        25.2810  -19.6660   -4.8320 C.2    14  ASN14       0.2630
     26  OD1       24.8030  -19.1540   -3.8330 O.2    14  ASN14      -0.2716
     27  ND2       24.6620  -20.6240   -5.5150 N.am   14  ASN14      -0.0877
     28  N         30.1340  -20.2720   -5.4450 N.am   15  THR15      -0.1937
     29  CA        31.4690  -19.7740   -5.7780 C.3    15  THR15       0.2028
     30  C         31.5370  -19.0200   -7.0840 C.2    15  THR15       0.2642
     31  O         32.3650  -18.1230   -7.2360 O.2    15  THR15      -0.2714
     32  CB        32.5150  -20.8970   -5.7760 C.3    15  THR15       0.1808
     33  OG1       32.2530  -21.7970   -6.8620 O.3    15  THR15      -0.2208
     34  CG2       32.4640  -21.6760   -4.4450 C.3    15  THR15       0.0379
     35  N         30.6070  -19.3390   -7.9890 N.am   16  ASP16      -0.1971
     36  CA        30.5310  -18.7060   -9.3080 C.3    16  ASP16       0.1709
     37  C         30.1670  -17.2300   -9.2590 C.2    16  ASP16       0.2293
     38  O         30.5320  -16.4780  -10.1690 O.2    16  ASP16      -0.2864
     39  CB        29.5880  -19.4740  -10.2580 C.3    16  ASP16       0.1436
     40  CG        28.1820  -19.6340   -9.7010 C.2    16  ASP16       0.3671
     41  OD1       28.0430  -19.8110   -8.4750 O.co2  16  ASP16      -0.2456
     42  OD2       27.2160  -19.6030  -10.4940 O.co2  16  ASP16      -0.2456
     43  N         16.3950  -22.5610   -3.2170 N.3    98  GLY98      -0.1210
     44  CA        16.5310  -22.6540   -4.6600 C.3    98  GLY98       0.1956
     45  C         16.3260  -24.1010   -4.9970 C.2    98  GLY98       0.2612
     46  O         15.2590  -24.6570   -4.7130 O.2    98  GLY98      -0.2717
     47  N         17.3240  -24.7190   -5.6120 N.am   99  LEU99      -0.1965
     48  CA        17.2010  -26.1230   -5.9540 C.3    99  LEU99       0.1728
     49  C         17.2580  -26.8580   -4.6110 C.2    99  LEU99       0.2616
     50  O         16.6120  -27.8830   -4.4170 O.2    99  LEU99      -0.2715
     51  CB        18.3500  -26.5640   -6.8590 C.3    99  LEU99       0.0311
     52  CG        18.4320  -28.0650   -7.1370 C.3    99  LEU99       0.0022
     53  CD1       17.1350  -28.5380   -7.7610 C.3    99  LEU99       0.0001
     54  CD2       19.6200  -28.3630   -8.0330 C.3    99  LEU99       0.0001
     55  N         18.0570  -26.3340   -3.6900 N.am  100  TYR100     -0.1974
     56  CA        18.1850  -26.9400   -2.3760 C.3   100  TYR100      0.1639
     57  C         17.3690  -26.1420   -1.3750 C.2   100  TYR100      0.2290
     58  O         17.1400  -24.9520   -1.5660 O.2   100  TYR100     -0.2864
     59  CB        19.6480  -27.0280   -1.9670 C.3   100  TYR100      0.0560
     60  CG        20.3890  -27.9780   -2.8450 C.ar  100  TYR100     -0.0198
     61  CD1       20.0480  -29.3260   -2.8790 C.ar  100  TYR100     -0.0009
     62  CD2       21.3660  -27.5220   -3.7190 C.ar  100  TYR100     -0.0009
     63  CE1       20.6520  -30.1970   -3.7720 C.ar  100  TYR100      0.0417
     64  CE2       21.9830  -28.3830   -4.6190 C.ar  100  TYR100      0.0417
     65  CZ        21.6220  -29.7190   -4.6430 C.ar  100  TYR100      0.1957
     66  OH        22.2520  -30.5730   -5.5260 O.3   100  TYR100     -0.2866
     67  N         20.1400  -24.5180    1.7590 N.3   207  ALA207     -0.1231
     68  CA        20.1830  -23.3640    0.8760 C.3   207  ALA207      0.1694
     69  C         18.8640  -22.6340    1.0660 C.2   207  ALA207      0.2592
     70  O         17.8490  -23.2570    1.3830 O.2   207  ALA207     -0.2718
     71  CB        20.3610  -23.8040   -0.5670 C.3   207  ALA207      0.0304
     72  N         18.8710  -21.3200    0.8870 N.am  208  ASP208     -0.1974
     73  CA        20.0750  -20.5750    0.5150 C.3   208  ASP208      0.1709
     74  C         20.6060  -19.6500    1.6110 C.2   208  ASP208      0.2293
     75  O         21.7430  -19.1600    1.5120 O.2   208  ASP208     -0.2864
     76  CB        19.8270  -19.7730   -0.7610 C.3   208  ASP208      0.1436
     77  CG        20.0200  -20.6020   -2.0120 C.2   208  ASP208      0.3671
     78  OD1       19.0530  -21.2580   -2.4500 O.co2 208  ASP208     -0.2456
     79  OD2       21.1440  -20.6000   -2.5500 O.co2 208  ASP208     -0.2456
     80  N         14.8660  -15.8490   -6.1050 N.3   226  THR226     -0.1203
     81  CA        14.8680  -17.0070   -5.2240 C.3   226  THR226      0.1994
     82  C         16.3220  -17.4560   -5.2030 C.2   226  THR226      0.2618
     83  O         17.1840  -16.7440   -5.7000 O.2   226  THR226     -0.2717
     84  CB        14.0400  -18.1450   -5.8150 C.3   226  THR226      0.1784
     85  OG1       14.4510  -18.3640   -7.1670 O.3   226  THR226     -0.2211
     86  CG2       12.5510  -17.8210   -5.7860 C.3   226  THR226      0.0376
     87  N         16.5880  -18.6510   -4.6920 N.am  227  GLY227     -0.1942
     88  CA        17.9520  -19.1430   -4.6450 C.3   227  GLY227      0.2014
     89  C         18.9700  -18.1520   -4.1050 C.2   227  GLY227      0.2638
     90  O         18.6710  -17.3390   -3.2450 O.2   227  GLY227     -0.2714
     91  N         20.1710  -18.1940   -4.6700 N.am  228  ARG228     -0.1977
     92  CA        21.2990  -17.3360   -4.3000 C.3   228  ARG228      0.1597
     93  C         21.0610  -15.8460   -4.1480 C.2   228  ARG228      0.2287
     94  O         21.9450  -15.1570   -3.6370 O.2   228  ARG228     -0.2864
     95  CB        22.4350  -17.5000   -5.3190 C.3   228  ARG228      0.0334
     96  CG        22.0080  -17.1270   -6.7270 C.3   228  ARG228      0.0492
     97  CD        23.1380  -16.6760   -7.6080 C.3   228  ARG228      0.2205
     98  NE        23.7380  -17.7430   -8.4020 N.pl3 228  ARG228     -0.0865
     99  CZ        24.1090  -17.6100   -9.6780 C.cat 228  ARG228      0.5346
    100  NH1       23.9310  -16.4620  -10.3180 N.pl3 228  ARG228      0.1354
    101  NH2       24.7250  -18.6020  -10.2990 N.pl3 228  ARG228      0.1354
@<TRIPOS>BOND
     1    42    40   ar
     2   100    99    1
     3   101    99    1
     4    39    40    1
     5    39    36    1
     6    38    37    2
     7    40    41   ar
     8    99    98    2
     9    36    37    1
    10    36    35    1
    11    98    97    1
    12    54    52    1
    13    35    30   am
    14    53    52    1
    15    97    96    1
    16    31    30    2
    17    85    84    1
    18    52    51    1
    19    30    29    1
    20    33    32    1
    21    51    48    1
    22    96    95    1
    23    80    81    1
    24    48    47    1
    25    48    49    1
    26    84    86    1
    27    84    81    1
    28    29    32    1
    29    29    28    1
    30    32    34    1
    31    23    22    2
    32    83    82    2
    33    47    45   am
    34    66    65    1
    35    27    25   am
    36    28    22   am
    37    22    21    1
    38    24    21    1
    39    24    25    1
    40    95    92    1
    41    81    82    1
    42    82    87   am
    43    21    20    1
    44    45    46    2
    45    45    44    1
    46    25    26    2
    47    12    11    1
    48    87    88    1
    49    91    92    1
    50    91    89   am
    51    44    43    1
    52    88    89    1
    53    65    64   ar
    54    65    63   ar
    55    64    62   ar
    56    49    50    2
    57    49    55   am
    58    92    93    1
    59    93    94    2
    60    89    90    2
    61    10    11   ar
    62    10     8   ar
    63    11     9   ar
    64    63    61   ar
    65    62    60   ar
    66    55    56    1
    67    20    15   am
    68    16    15    2
    69     8     6   ar
    70    15    14    1
    71    61    60   ar
    72    60    59    1
    73     9     7   ar
    74    79    77   ar
    75    78    77   ar
    76    56    59    1
    77    56    57    1
    78    77    76    1
    79     6     7   ar
    80     6     5    1
    81    58    57    2
    82    14    17    1
    83    14    13    1
    84    17    18    1
    85     4     3    2
    86    76    73    1
    87    13     3   am
    88    13    19    1
    89    18    19    1
    90     5     2    1
    91    71    68    1
    92     3     2    1
    93     2     1    1
    94    73    72    1
    95    73    74    1
    96    68    69    1
    97    68    67    1
    98    72    69   am
    99    69    70    2
   100    75    74    2
