@<TRIPOS>MOLECULE
tmp/1cvrA00.pdb
 102 101 0 0 0
SMALL
GASTEIGER

@<TRIPOS>ATOM
      1  N         57.4030   18.7990   61.9370 N.3   163  ASP163     -0.1239
      2  CA        57.1620   20.2450   61.8610 C.3   163  ASP163      0.1674
      3  C         56.2390   20.7670   62.9600 C.2   163  ASP163      0.2266
      4  O         56.4040   21.8970   63.4430 O.2   163  ASP163     -0.2867
      5  CB        56.6140   20.6320   60.4800 C.3   163  ASP163      0.1410
      6  CG        57.6530   20.4780   59.3800 C.2   163  ASP163      0.3668
      7  OD1       58.8490   20.3090   59.7130 O.co2 163  ASP163     -0.2456
      8  OD2       57.2860   20.5430   58.1800 O.co2 163  ASP163     -0.2456
      9  N         56.5360   26.4430   58.8530 N.3   209  THR209     -0.1203
     10  CA        57.4770   25.3510   58.6510 C.3   209  THR209      0.1994
     11  C         56.7160   24.3240   57.8250 C.2   209  THR209      0.2618
     12  O         55.7650   23.7170   58.3170 O.2   209  THR209     -0.2717
     13  CB        57.8990   24.6620   59.9680 C.3   209  THR209      0.1784
     14  OG1       58.3480   25.6270   60.9340 O.3   209  THR209     -0.2211
     15  CG2       59.0500   23.7020   59.6850 C.3   209  THR209      0.0376
     16  N         57.1020   24.1410   56.5690 N.am  210  GLY210     -0.1942
     17  CA        56.4140   23.1680   55.7350 C.3   210  GLY210      0.2014
     18  C         56.8880   23.2240   54.2940 C.2   210  GLY210      0.2639
     19  O         58.0650   23.4600   54.0210 O.2   210  GLY210     -0.2714
     20  N         55.9620   23.0050   53.3690 N.am  211  HIS211     -0.1959
     21  CA        56.2530   23.0400   51.9390 C.3   211  HIS211      0.1787
     22  C         55.8250   24.3530   51.3380 C.2   211  HIS211      0.2620
     23  O         54.9770   25.0600   51.8930 O.2   211  HIS211     -0.2715
     24  CB        55.4810   21.9410   51.2120 C.3   211  HIS211      0.0785
     25  CG        56.1710   20.6260   51.2060 C.ar  211  HIS211      0.0821
     26  ND1       57.2150   20.3460   50.3520 N.ar  211  HIS211     -0.2267
     27  CD2       55.9930   19.5210   51.9650 C.ar  211  HIS211      0.1154
     28  CE1       57.6500   19.1220   50.5840 C.ar  211  HIS211      0.1986
     29  NE2       56.9250   18.6020   51.5580 N.ar  211  HIS211     -0.2212
     30  N         56.3900   24.6620   50.1770 N.am  212  GLY212     -0.1954
     31  CA        56.0170   25.8910   49.5050 C.3   212  GLY212      0.1869
     32  C         56.3870   25.8870   48.0350 C.2   212  GLY212      0.2309
     33  O         57.2740   25.1440   47.6140 O.2   212  GLY212     -0.2863
     34  N         60.1250   28.9480   56.4990 N.3   242  VAL242     -0.1231
     35  CA        60.8370   27.7310   56.1250 C.3   242  VAL242      0.1692
     36  C         60.0160   27.0230   55.0520 C.2   242  VAL242      0.2592
     37  O         58.9880   26.4130   55.3530 O.2   242  VAL242     -0.2718
     38  CB        61.0220   26.7710   57.3290 C.3   242  VAL242      0.0266
     39  CG1       61.5990   25.4370   56.8410 C.3   242  VAL242      0.0020
     40  CG2       61.9840   27.3870   58.3580 C.3   242  VAL242      0.0020
     41  N         60.4780   27.1070   53.8060 N.am  243  ALA243     -0.1966
     42  CA        59.7830   26.4900   52.6840 C.3   243  ALA243      0.1728
     43  C         60.6000   26.6720   51.4230 C.2   243  ALA243      0.2616
     44  O         61.4440   27.5680   51.3610 O.2   243  ALA243     -0.2715
     45  CB        58.4490   27.1500   52.4910 C.3   243  ALA243      0.0334
     46  N         60.3500   25.8310   50.4170 N.am  244  CYS244     -0.1968
     47  CA        61.0510   25.9900   49.1450 C.3   244  CYS244      0.1712
     48  C         60.5120   27.2280   48.4500 C.2   244  CYS244      0.2296
     49  O         59.3600   27.6180   48.6430 O.2   244  CYS244     -0.2864
     50  CB        60.8060   24.8130   48.1720 C.3   244  CYS244      0.0983
     51  SG        61.5440   23.2070   48.5650 S.3   244  CYS244     -0.0798
     52  N         65.1100   25.7800   46.4450 N.3   281  ASP281     -0.1225
     53  CA        64.5280   24.7010   47.2350 C.3   281  ASP281      0.1805
     54  C         65.3320   24.5670   48.5260 C.2   281  ASP281      0.2598
     55  O         66.5620   24.6180   48.4990 O.2   281  ASP281     -0.2718
     56  CB        64.5870   23.3580   46.4930 C.3   281  ASP281      0.1424
     57  CG        63.5900   23.2570   45.3700 C.2   281  ASP281      0.3668
     58  OD1       62.6280   24.0450   45.3400 O.co2 281  ASP281     -0.2456
     59  OD2       63.7430   22.3530   44.5230 O.co2 281  ASP281     -0.2456
     60  N         64.6470   24.3910   49.6460 N.am  282  GLN282     -0.1965
     61  CA        65.3260   24.2300   50.9240 C.3   282  GLN282      0.1733
     62  C         65.3890   22.7830   51.3740 C.2   282  GLN282      0.2616
     63  O         64.4510   22.0150   51.1390 O.2   282  GLN282     -0.2715
     64  CB        64.6240   25.0290   52.0330 C.3   282  GLN282      0.0408
     65  CG        64.7420   26.5370   51.9230 C.3   282  GLN282      0.0908
     66  CD        64.4170   27.2280   53.2320 C.2   282  GLN282      0.2608
     67  OE1       63.4490   26.8760   53.9010 O.2   282  GLN282     -0.2717
     68  NE2       65.2210   28.2240   53.6010 N.am  282  GLN282     -0.0878
     69  N         66.4940   22.4260   52.0250 N.am  283  TYR283     -0.1960
     70  CA        66.6680   21.0940   52.5730 C.3   283  TYR283      0.1771
     71  C         65.6820   21.0120   53.7310 C.2   283  TYR283      0.2619
     72  O         65.1850   22.0410   54.2180 O.2   283  TYR283     -0.2715
     73  CB        68.0970   20.8930   53.0920 C.3   283  TYR283      0.0574
     74  CG        69.1570   21.0240   52.0180 C.ar  283  TYR283     -0.0198
     75  CD1       69.1360   20.2030   50.8840 C.ar  283  TYR283     -0.0009
     76  CD2       70.1680   21.9820   52.1180 C.ar  283  TYR283     -0.0009
     77  CE1       70.0960   20.3340   49.8700 C.ar  283  TYR283      0.0417
     78  CE2       71.1360   22.1240   51.1120 C.ar  283  TYR283      0.0417
     79  CZ        71.0910   21.2970   49.9920 C.ar  283  TYR283      0.1957
     80  OH        72.0380   21.4300   48.9990 O.3   283  TYR283     -0.2866
     81  N         65.4110   19.7980   54.1950 N.am  284  TRP284     -0.1974
     82  CA        64.4410   19.6140   55.2650 C.3   284  TRP284      0.1640
     83  C         64.8570   20.0880   56.6720 C.2   284  TRP284      0.2290
     84  O         64.1910   20.9300   57.2800 O.2   284  TRP284     -0.2864
     85  CB        64.0160   18.1370   55.3000 C.3   284  TRP284      0.0576
     86  CG        62.7950   17.9210   56.1330 C.ar  284  TRP284      0.0006
     87  CD1       62.7350   17.7770   57.4980 C.ar  284  TRP284      0.0946
     88  CD2       61.4440   18.0360   55.6810 C.ar  284  TRP284      0.0152
     89  NE1       61.4200   17.8040   57.9170 N.ar  284  TRP284     -0.2442
     90  CE2       60.6100   17.9660   56.8210 C.ar  284  TRP284      0.0810
     91  CE3       60.8550   18.2000   54.4200 C.ar  284  TRP284      0.0012
     92  CZ2       59.2140   18.0540   56.7340 C.ar  284  TRP284      0.0191
     93  CZ3       59.4650   18.2900   54.3350 C.ar  284  TRP284      0.0001
     94  CH2       58.6650   18.2170   55.4850 C.ar  284  TRP284      0.0015
     95  N         65.3520   24.4020   59.8140 N.3   288  MET288     -0.1245
     96  CA        64.6780   24.2890   61.1000 C.3   288  MET288      0.1570
     97  C         65.5680   24.8470   62.2150 C.2   288  MET288      0.2261
     98  O         65.0840   25.5470   63.1010 O.2   288  MET288     -0.2867
     99  CB        64.3270   22.8300   61.3980 C.3   288  MET288      0.0387
    100  CG        63.3780   22.2210   60.3850 C.3   288  MET288      0.0595
    101  SD        63.0110   20.5150   60.7460 S.3   288  MET288     -0.1393
    102  CE        62.0610   20.6530   62.2970 C.3   288  MET288      0.0692
@<TRIPOS>BOND
     1    59    57   ar
     2    58    57   ar
     3    57    56    1
     4    52    53    1
     5    56    53    1
     6    53    54    1
     7    33    32    2
     8    32    31    1
     9    50    51    1
    10    50    47    1
    11    48    49    2
    12    48    47    1
    13    55    54    2
    14    54    60   am
    15    80    79    1
    16    47    46    1
    17    31    30    1
    18    60    61    1
    19    77    79   ar
    20    77    75   ar
    21    79    78   ar
    22    30    22   am
    23    26    28   ar
    24    26    25   ar
    25    46    43   am
    26    28    29   ar
    27    75    74   ar
    28    61    62    1
    29    61    64    1
    30    78    76   ar
    31    63    62    2
    32    25    24    1
    33    25    27   ar
    34    24    21    1
    35    22    23    2
    36    22    21    1
    37    44    43    2
    38    62    69   am
    39    43    42    1
    40    29    27   ar
    41    65    64    1
    42    65    66    1
    43    21    20    1
    44    74    76   ar
    45    74    73    1
    46    69    70    1
    47    45    42    1
    48    70    73    1
    49    70    71    1
    50    42    41    1
    51    66    68   am
    52    66    67    2
    53    20    18   am
    54    71    81   am
    55    71    72    2
    56    41    36   am
    57    19    18    2
    58    81    82    1
    59    18    17    1
    60    93    91   ar
    61    93    94   ar
    62    91    88   ar
    63    36    37    2
    64    36    35    1
    65    82    85    1
    66    82    83    1
    67    85    86    1
    68    94    92   ar
    69    88    86   ar
    70    88    90   ar
    71    17    16    1
    72    35    34    1
    73    35    38    1
    74    86    87   ar
    75    16    11   am
    76    83    84    2
    77    92    90   ar
    78    90    89   ar
    79    39    38    1
    80    38    40    1
    81    87    89   ar
    82    11    12    2
    83    11    10    1
    84     8     6   ar
    85    10     9    1
    86    10    13    1
    87     6     7   ar
    88     6     5    1
    89    15    13    1
    90    95    96    1
    91    13    14    1
    92   100   101    1
    93   100    99    1
    94     5     2    1
    95   101   102    1
    96    96    99    1
    97    96    97    1
    98     2     1    1
    99     2     3    1
   100    97    98    2
   101     3     4    2
