@<TRIPOS>MOLECULE
tmp/1cvuA06.pdb
 165 162 0 0 0
SMALL
GASTEIGER

@<TRIPOS>ATOM
      1  N         19.7780   36.5500   45.1890 N.3   168  ALA168     -0.1245
      2  CA        19.7170   36.4560   43.7360 C.3   168  ALA168      0.1562
      3  C         20.7760   37.3260   43.0450 C.2   168  ALA168      0.2260
      4  O         21.4370   36.8800   42.1020 O.2   168  ALA168     -0.2867
      5  CB        18.3100   36.8300   43.2530 C.3   168  ALA168      0.0290
      6  N         24.3940   36.0760   43.7060 N.3   171  ALA171     -0.1231
      7  CA        24.6870   34.9200   42.8610 C.3   171  ALA171      0.1694
      8  C         25.1360   35.4090   41.5030 C.2   171  ALA171      0.2591
      9  O         26.0920   34.8970   40.9140 O.2   171  ALA171     -0.2718
     10  CB        23.4480   34.0450   42.7130 C.3   171  ALA171      0.0304
     11  N         24.4450   36.4210   41.0120 N.am  172  GLN172     -0.1979
     12  CA        24.7720   36.9650   39.7260 C.3   172  GLN172      0.1601
     13  C         26.0880   37.7390   39.7110 C.2   172  GLN172      0.2287
     14  O         26.8980   37.6000   38.7990 O.2   172  GLN172     -0.2864
     15  CB        23.7020   37.8920   39.2850 C.3   172  GLN172      0.0394
     16  CG        24.1090   38.3800   38.0040 C.3   172  GLN172      0.0908
     17  CD        23.0720   37.9800   37.0540 C.2   172  GLN172      0.2608
     18  OE1       22.9950   36.7460   36.4790 O.2   172  GLN172     -0.2717
     19  NE2       22.1160   38.9970   36.9460 N.am  172  GLN172     -0.0878
     20  N         29.2330   35.0490   40.6050 N.3   175  THR175     -0.1203
     21  CA        29.5660   34.1640   39.4860 C.3   175  THR175      0.1994
     22  C         29.9720   34.8740   38.2000 C.2   175  THR175      0.2617
     23  O         30.4960   34.2510   37.2740 O.2   175  THR175     -0.2717
     24  CB        28.3950   33.2010   39.1580 C.3   175  THR175      0.1784
     25  OG1       27.2730   33.9560   38.6890 O.3   175  THR175     -0.2211
     26  CG2       27.9860   32.4130   40.3890 C.3   175  THR175      0.0376
     27  N         29.7320   36.1780   38.1410 N.am  176  ALA176     -0.1979
     28  CA        30.0820   36.9580   36.9650 C.3   176  ALA176      0.1597
     29  C         31.6050   37.0760   36.7810 C.2   176  ALA176      0.2287
     30  O         32.0810   37.4230   35.6870 O.2   176  ALA176     -0.2864
     31  CB        29.4650   38.3250   37.0720 C.3   176  ALA176      0.0319
     32  N         32.1410   33.2250   35.1740 N.3   179  PHE179     -0.1227
     33  CA        31.3080   32.7520   34.0700 C.3   179  PHE179      0.1736
     34  C         31.2880   33.9570   33.1480 C.2   179  PHE179      0.2595
     35  O         30.4020   34.8030   33.2470 O.2   179  PHE179     -0.2718
     36  CB        29.8620   32.4450   34.5080 C.3   179  PHE179      0.0547
     37  CG        29.7060   31.1870   35.3320 C.ar  179  PHE179     -0.0202
     38  CD1       30.5610   30.1130   35.1690 C.ar  179  PHE179     -0.0042
     39  CD2       28.7210   31.1080   36.3100 C.ar  179  PHE179     -0.0042
     40  CE1       30.4480   28.9860   35.9710 C.ar  179  PHE179     -0.0003
     41  CE2       28.5970   29.9870   37.1190 C.ar  179  PHE179     -0.0003
     42  CZ        29.4620   28.9240   36.9520 C.ar  179  PHE179     -0.0000
     43  N         32.2820   34.0680   32.2820 N.am  180  LYS180     -0.1966
     44  CA        32.3400   35.1950   31.3630 C.3   180  LYS180      0.1728
     45  C         32.5190   34.6520   29.9720 C.2   180  LYS180      0.2616
     46  O         33.5900   34.7250   29.3740 O.2   180  LYS180     -0.2715
     47  CB        33.5010   36.1000   31.7210 C.3   180  LYS180      0.0311
     48  CG        33.4850   36.5740   33.1510 C.3   180  LYS180      0.0038
     49  CD        34.8750   36.9670   33.5700 C.3   180  LYS180      0.0206
     50  CE        35.3620   38.0920   32.7230 C.3   180  LYS180      0.1093
     51  NZ        36.6440   38.5950   33.2320 N.3   180  LYS180     -0.1314
     52  N         31.4420   34.0890   29.4620 N.am  181  THR181     -0.1951
     53  CA        31.4570   33.4840   28.1530 C.3   181  THR181      0.1897
     54  C         31.9550   34.4230   27.0630 C.2   181  THR181      0.2313
     55  O         31.5380   35.5820   26.9820 O.2   181  THR181     -0.2863
     56  CB        30.0660   32.9440   27.8480 C.3   181  THR181      0.1794
     57  OG1       29.6550   32.1100   28.9500 O.3   181  THR181     -0.2208
     58  CG2       30.0730   32.1410   26.5580 C.3   181  THR181      0.0378
     59  N         31.5200   35.1930   23.8370 N.3   183  HIS183     -0.1241
     60  CA        30.5630   35.0990   22.7410 C.3   183  HIS183      0.1621
     61  C         31.1440   35.1090   21.3200 C.2   183  HIS183      0.2264
     62  O         30.6280   34.4170   20.4330 O.2   183  HIS183     -0.2867
     63  CB        29.5160   36.2070   22.8920 C.3   183  HIS183      0.0745
     64  CG        28.8290   36.2090   24.2280 C.ar  183  HIS183      0.0817
     65  ND1       28.0020   35.1900   24.6480 N.ar  183  HIS183     -0.2268
     66  CD2       28.8580   37.1160   25.2400 C.ar  183  HIS183      0.1154
     67  CE1       27.5530   35.4570   25.8590 C.ar  183  HIS183      0.1986
     68  NE2       28.0540   36.6220   26.2440 N.ar  183  HIS183     -0.2212
     69  N         29.9170   29.3690   23.0330 N.3   187  PRO187     -0.2116
     70  CA        29.4640   29.0350   24.3840 C.3   187  PRO187      0.1372
     71  C         30.4830   28.2520   25.2270 C.2   187  PRO187      0.2244
     72  O         30.4780   28.3490   26.4580 O.2   187  PRO187     -0.2868
     73  CB        28.1780   28.2370   24.1360 C.3   187  PRO187      0.0268
     74  CG        28.2860   27.7580   22.7430 C.3   187  PRO187      0.0207
     75  CD        29.0270   28.8060   22.0020 C.3   187  PRO187      0.0892
     76  N         36.2530   34.2190   29.0630 N.3   191  ARG191     -0.1245
     77  CA        37.2190   35.2960   29.0760 C.3   191  ARG191      0.1563
     78  C         37.8450   35.4030   30.4570 C.2   191  ARG191      0.2260
     79  O         38.7360   36.2120   30.6860 O.2   191  ARG191     -0.2867
     80  CB        36.5440   36.6010   28.7020 C.3   191  ARG191      0.0307
     81  CG        36.4030   36.7720   27.2100 C.3   191  ARG191      0.0489
     82  CD        35.7780   38.1070   26.8870 C.3   191  ARG191      0.2205
     83  NE        34.3290   38.0140   26.9700 N.pl3 191  ARG191     -0.0865
     84  CZ        33.6170   38.3790   28.0300 C.cat 191  ARG191      0.5346
     85  NH1       34.2230   38.8730   29.1070 N.pl3 191  ARG191      0.1354
     86  NH2       32.2960   38.2320   28.0200 N.pl3 191  ARG191      0.1354
     87  N         28.6470   26.2060   34.5260 N.3   351  ASN351     -0.1240
     88  CA        28.0210   27.4060   34.0080 C.3   351  ASN351      0.1653
     89  C         26.5600   27.1280   33.6610 C.2   351  ASN351      0.2266
     90  O         25.6650   27.9080   33.9910 O.2   351  ASN351     -0.2867
     91  CB        28.7550   27.8800   32.7630 C.3   351  ASN351      0.1155
     92  CG        28.2010   29.1760   32.2390 C.2   351  ASN351      0.2627
     93  OD1       27.2060   29.6830   32.7440 O.2   351  ASN351     -0.2716
     94  ND2       28.8430   29.7290   31.2340 N.am  351  ASN351     -0.0877
     95  N         24.2030   26.5820   36.5520 N.3   354  TYR354     -0.1227
     96  CA        24.0670   27.8320   37.2840 C.3   354  TYR354      0.1736
     97  C         23.0860   28.8330   36.6850 C.2   354  TYR354      0.2595
     98  O         22.9270   29.9190   37.2250 O.2   354  TYR354     -0.2718
     99  CB        25.4290   28.4990   37.4480 C.3   354  TYR354      0.0548
    100  CG        25.7180   28.9440   38.8650 C.ar  354  TYR354     -0.0200
    101  CD1       26.7200   28.3320   39.6120 C.ar  354  TYR354     -0.0009
    102  CD2       25.0110   29.9880   39.4430 C.ar  354  TYR354     -0.0009
    103  CE1       27.0180   28.7500   40.9030 C.ar  354  TYR354      0.0417
    104  CE2       25.2920   30.4140   40.7200 C.ar  354  TYR354      0.0417
    105  CZ        26.3010   29.7930   41.4570 C.ar  354  TYR354      0.1957
    106  OH        26.5910   30.2090   42.7490 O.3   354  TYR354     -0.2866
    107  N         22.4390   28.4910   35.5730 N.am  355  HIS355     -0.1961
    108  CA        21.4580   29.3990   34.9760 C.3   355  HIS355      0.1787
    109  C         20.1850   29.3310   35.8200 C.2   355  HIS355      0.2620
    110  O         19.1750   28.7420   35.4350 O.2   355  HIS355     -0.2715
    111  CB        21.1800   28.9970   33.5300 C.3   355  HIS355      0.0785
    112  CG        22.3570   29.2000   32.6270 C.ar  355  HIS355      0.0821
    113  ND1       22.8160   30.4480   32.2770 N.ar  355  HIS355     -0.2267
    114  CD2       23.1670   28.3120   32.0050 C.ar  355  HIS355      0.1154
    115  CE1       23.8560   30.3260   31.4770 C.ar  355  HIS355      0.1986
    116  NE2       24.0910   29.0400   31.2930 N.ar  355  HIS355     -0.2212
    117  N         20.2630   29.9530   36.9900 N.am  356  TRP356     -0.1960
    118  CA        19.1820   29.9680   37.9580 C.3   356  TRP356      0.1771
    119  C         18.2060   31.1170   37.7410 C.2   356  TRP356      0.2619
    120  O         17.8970   31.8520   38.6860 O.2   356  TRP356     -0.2715
    121  CB        19.7720   30.0850   39.3560 C.3   356  TRP356      0.0590
    122  CG        20.7000   28.9860   39.7270 C.ar  356  TRP356      0.0006
    123  CD1       20.8350   27.7730   39.1060 C.ar  356  TRP356      0.0946
    124  CD2       21.5430   28.9460   40.8830 C.ar  356  TRP356      0.0152
    125  NE1       21.7050   26.9750   39.8210 N.ar  356  TRP356     -0.2442
    126  CE2       22.1530   27.6710   40.9190 C.ar  356  TRP356      0.0810
    127  CE3       21.8350   29.8680   41.9040 C.ar  356  TRP356      0.0012
    128  CZ2       23.0460   27.2850   41.9330 C.ar  356  TRP356      0.0191
    129  CZ3       22.7200   29.4880   42.9210 C.ar  356  TRP356      0.0001
    130  CH2       23.3140   28.2010   42.9240 C.ar  356  TRP356      0.0015
    131  N         17.6940   31.2670   36.5210 N.am  357  HIS357     -0.1973
    132  CA        16.7650   32.3650   36.2290 C.3   357  HIS357      0.1656
    133  C         15.3980   32.3360   36.9360 C.2   357  HIS357      0.2291
    134  O         14.8270   33.3860   37.2280 O.2   357  HIS357     -0.2864
    135  CB        16.6420   32.5030   34.7120 C.3   357  HIS357      0.0771
    136  CG        17.9750   32.6470   34.0370 C.ar  357  HIS357      0.0820
    137  ND1       18.8040   33.7280   34.2690 N.ar  357  HIS357     -0.2267
    138  CD2       18.6800   31.7950   33.2520 C.ar  357  HIS357      0.1154
    139  CE1       19.9620   33.5320   33.6560 C.ar  357  HIS357      0.1986
    140  NE2       19.9100   32.3700   33.0360 N.ar  357  HIS357     -0.2212
    141  N         14.8560   32.2850   39.6300 N.3   359  LEU359     -0.1231
    142  CA        15.0430   33.0190   40.8700 C.3   359  LEU359      0.1693
    143  C         14.4490   34.3970   40.7360 C.2   359  LEU359      0.2591
    144  O         13.9590   34.9750   41.7070 O.2   359  LEU359     -0.2718
    145  CB        16.5360   33.1740   41.1980 C.3   359  LEU359      0.0284
    146  CG        17.3180   32.1940   42.0820 C.3   359  LEU359      0.0019
    147  CD1       18.7900   32.6520   42.0940 C.3   359  LEU359      0.0001
    148  CD2       16.7630   32.1600   43.4860 C.3   359  LEU359      0.0001
    149  N         14.5100   34.9290   39.5220 N.am  360  LEU360     -0.1980
    150  CA        14.0130   36.2720   39.2590 C.3   360  LEU360      0.1596
    151  C         12.5270   36.4700   39.4730 C.2   360  LEU360      0.2287
    152  O         11.7080   35.6650   39.0320 O.2   360  LEU360     -0.2864
    153  CB        14.3840   36.6780   37.8410 C.3   360  LEU360      0.0297
    154  CG        15.8730   36.9720   37.6750 C.3   360  LEU360      0.0022
    155  CD1       16.1210   37.4430   36.2450 C.3   360  LEU360      0.0001
    156  CD2       16.3100   38.0340   38.6970 C.3   360  LEU360      0.0001
    157  N         22.3170   26.1920   23.3710 N.3   423  GLN423     -0.1245
    158  CA        23.7650   26.1710   23.5100 C.3   423  GLN423      0.1566
    159  C         24.3170   24.8520   24.0440 C.2   423  GLN423      0.2260
    160  O         25.3750   24.4050   23.6050 O.2   423  GLN423     -0.2867
    161  CB        24.2100   27.3420   24.3730 C.3   423  GLN423      0.0367
    162  CG        24.3090   28.5990   23.5620 C.3   423  GLN423      0.0905
    163  CD        24.4030   29.8370   24.4020 C.2   423  GLN423      0.2608
    164  OE1       24.5680   30.9240   23.8750 O.2   423  GLN423     -0.2717
    165  NE2       24.2960   29.6880   25.7200 N.am  423  GLN423     -0.0878
@<TRIPOS>BOND
     1    62    61    2
     2    61    60    1
     3    75    74    1
     4    75    69    1
     5    60    63    1
     6    60    59    1
     7    74    73    1
     8    63    64    1
     9    69    70    1
    10   157   158    1
    11   158   159    1
    12   158   161    1
    13   162   161    1
    14   162   163    1
    15   160   159    2
    16   164   163    2
    17    73    70    1
    18    64    65   ar
    19    64    66   ar
    20    70    71    1
    21   163   165   am
    22    65    67   ar
    23    71    72    2
    24    66    68   ar
    25    67    68   ar
    26    58    56    1
    27    82    83    1
    28    82    81    1
    29    83    84    2
    30    55    54    2
    31    54    53    1
    32    81    80    1
    33    56    53    1
    34    56    57    1
    35    86    84    1
    36    84    85    1
    37    53    52    1
    38    80    77    1
    39    76    77    1
    40    77    78    1
    41    46    45    2
    42    52    45   am
    43    45    44    1
    44    78    79    2
    45    94    92   am
    46   116   115   ar
    47   116   114   ar
    48    44    47    1
    49    44    43    1
    50   115   113   ar
    51    47    48    1
    52   114   112   ar
    53    92    93    2
    54    92    91    1
    55   113   112   ar
    56    43    34   am
    57   112   111    1
    58    50    51    1
    59    50    49    1
    60    91    88    1
    61   140   138   ar
    62   140   139   ar
    63    34    35    2
    64    34    33    1
    65    48    49    1
    66   138   136   ar
    67   111   108    1
    68   139   137   ar
    69    89    90    2
    70    89    88    1
    71    88    87    1
    72   136   137   ar
    73   136   135    1
    74    33    36    1
    75    33    32    1
    76    36    37    1
    77   135   132    1
    78   108   107    1
    79   108   109    1
    80    38    37   ar
    81    38    40   ar
    82    37    39   ar
    83   110   109    2
    84   107    97   am
    85    30    29    2
    86   109   117   am
    87    40    42   ar
    88   132   131    1
    89   132   133    1
    90   155   154    1
    91    39    41   ar
    92    18    17    2
    93   131   119   am
    94    95    96    1
    95    97    98    2
    96    97    96    1
    97    29    28    1
    98   133   134    2
    99    19    17   am
   100    42    41   ar
   101    28    31    1
   102    28    27    1
   103   117   118    1
   104    17    16    1
   105    23    22    2
   106    96    99    1
   107    99   100    1
   108   154   153    1
   109   154   156    1
   110   119   118    1
   111   119   120    2
   112   153   150    1
   113   118   121    1
   114    16    15    1
   115    27    22   am
   116    22    21    1
   117    25    24    1
   118    14    13    2
   119   100   102   ar
   120   100   101   ar
   121   152   151    2
   122   123   122   ar
   123   123   125   ar
   124    24    21    1
   125    24    26    1
   126   150   151    1
   127   150   149    1
   128    15    12    1
   129   121   122    1
   130   102   104   ar
   131    21    20    1
   132   149   143   am
   133   101   103   ar
   134   141   142    1
   135    13    12    1
   136    12    11    1
   137   122   124   ar
   138   125   126   ar
   139   104   105   ar
   140   143   142    1
   141   143   144    2
   142   142   145    1
   143   124   126   ar
   144   124   127   ar
   145   103   105   ar
   146     9     8    2
   147   126   128   ar
   148    11     8   am
   149   145   146    1
   150   105   106    1
   151     8     7    1
   152   127   129   ar
   153   128   130   ar
   154   146   147    1
   155   146   148    1
   156     4     3    2
   157    10     7    1
   158     7     6    1
   159   129   130   ar
   160     3     2    1
   161     5     2    1
   162     2     1    1
