@<TRIPOS>MOLECULE
tmp/1cvzA00.pdb
 193 191 0 0 0
SMALL
GASTEIGER

@<TRIPOS>ATOM
      1  N         15.1490   11.0990    5.0380 N.3    18  ASN18      -0.1225
      2  CA        15.4410    9.8700    5.7540 C.3    18  ASN18       0.1785
      3  C         16.9130    9.9260    6.1510 C.2    18  ASN18       0.2597
      4  O         17.8040    9.9930    5.2960 O.2    18  ASN18      -0.2718
      5  CB        15.1570    8.6420    4.8750 C.3    18  ASN18       0.1169
      6  CG        15.2960    7.3270    5.6310 C.2    18  ASN18       0.2627
      7  OD1       15.4400    7.3050    6.8580 O.2    18  ASN18      -0.2716
      8  ND2       15.2800    6.2210    4.8940 N.am   18  ASN18      -0.0877
      9  N         17.1530    9.8780    7.4580 N.am   19  GLN19      -0.1965
     10  CA        18.5050    9.9180    7.9930 C.3    19  GLN19       0.1733
     11  C         19.2410    8.5960    7.8470 C.2    19  GLN19       0.2617
     12  O         20.4680    8.5660    7.8700 O.2    19  GLN19      -0.2715
     13  CB        18.5020   10.3770    9.4600 C.3    19  GLN19       0.0408
     14  CG        17.7980    9.4480   10.4370 C.3    19  GLN19       0.0908
     15  CD        17.8920    9.9490   11.8430 C.2    19  GLN19       0.2608
     16  OE1       17.0040   10.6380   12.3280 O.2    19  GLN19      -0.2717
     17  NE2       18.9870    9.6300   12.5020 N.am   19  GLN19      -0.0878
     18  N         18.4820    7.5140    7.6800 N.am   20  GLY20      -0.1940
     19  CA        19.0720    6.1910    7.5490 C.3    20  GLY20       0.2014
     20  C         19.5670    5.6650    8.8830 C.2    20  GLY20       0.2640
     21  O         19.0360    6.0410    9.9270 O.2    20  GLY20      -0.2714
     22  N         20.6300    4.8640    8.8520 N.am   21  SER21      -0.1935
     23  CA        21.2060    4.2690   10.0660 C.3    21  SER21       0.2055
     24  C         22.1410    5.1890   10.8560 C.2    21  SER21       0.2643
     25  O         22.5040    4.8790   11.9930 O.2    21  SER21      -0.2714
     26  CB        21.9100    2.9540    9.7220 C.3    21  SER21       0.2130
     27  OG        22.8180    3.1320    8.6460 O.3    21  SER21      -0.2179
     28  N         22.5010    6.3240   10.2540 N.am   22  CYS22      -0.1953
     29  CA        23.3710    7.3260   10.8740 C.3    22  CYS22       0.1843
     30  C         22.6150    8.1500   11.9240 C.2    22  CYS22       0.2626
     31  O         21.5220    8.6440   11.6500 O.2    22  CYS22      -0.2714
     32  CB        23.9420    8.2520    9.7950 C.3    22  CYS22       0.0997
     33  SG        24.9020    9.6800   10.4000 S.3    22  CYS22      -0.0797
     34  N         23.2110    8.3010   13.1100 N.am   23  GLY23      -0.1954
     35  CA        22.5920    9.0650   14.1900 C.3    23  GLY23       0.1869
     36  C         22.7740   10.5590   13.9950 C.2    23  GLY23       0.2309
     37  O         23.3380   11.2540   14.8440 O.2    23  GLY23      -0.2863
     38  N         20.1540   12.7810   13.5670 N.3    25  CYS25      -0.1221
     39  CA        18.8960   13.4900   13.8690 C.3    25  CYS25       0.1808
     40  C         19.0670   14.9680   14.2130 C.2    25  CYS25       0.2601
     41  O         18.2760   15.8090   13.8020 O.2    25  CYS25      -0.2717
     42  CB        18.1810   12.8180   15.0260 C.3    25  CYS25       0.0970
     43  SG        19.1530   12.7920   16.5680 S.3    25  CYS25      -0.0800
     44  N         20.1380   15.2550   14.9510 N.am   26  TRP26      -0.1976
     45  CA        20.4940   16.6010   15.3850 C.3    26  TRP26       0.1640
     46  C         20.7360   17.5560   14.2160 C.2    26  TRP26       0.2290
     47  O         20.3370   18.7160   14.2660 O.2    26  TRP26      -0.2864
     48  CB        21.7260   16.5330   16.2960 C.3    26  TRP26       0.0576
     49  CG        22.9260   15.8530   15.6680 C.ar   26  TRP26       0.0006
     50  CD1       23.1570   14.5110   15.5730 C.ar   26  TRP26       0.0946
     51  CD2       24.0350   16.4960   15.0270 C.ar   26  TRP26       0.0152
     52  NE1       24.3410   14.2720   14.9070 N.ar   26  TRP26      -0.2442
     53  CE2       24.9020   15.4750   14.5590 C.ar   26  TRP26       0.0810
     54  CE3       24.3800   17.8490   14.7990 C.ar   26  TRP26       0.0012
     55  CZ2       26.0970   15.7540   13.8680 C.ar   26  TRP26       0.0191
     56  CZ3       25.5690   18.1340   14.1070 C.ar   26  TRP26       0.0001
     57  CH2       26.4140   17.0840   13.6520 C.ar   26  TRP26       0.0015
     58  N         29.0780   14.4210   17.6410 N.3    61  TYR61      -0.1241
     59  CA        29.6960   13.1080   17.4260 C.3    61  TYR61       0.1605
     60  C         29.3690   12.4060   16.1070 C.2    61  TYR61       0.2264
     61  O         29.3880   11.1680   16.0350 O.2    61  TYR61      -0.2867
     62  CB        29.3610   12.1790   18.6060 C.3    61  TYR61       0.0534
     63  CG        29.3800   12.8580   19.9460 C.ar   61  TYR61      -0.0201
     64  CD1       30.5770   13.3910   20.4690 C.ar   61  TYR61      -0.0009
     65  CD2       28.1870   13.0490   20.6710 C.ar   61  TYR61      -0.0009
     66  CE1       30.5890   14.1140   21.6800 C.ar   61  TYR61       0.0417
     67  CE2       28.1860   13.7670   21.8950 C.ar   61  TYR61       0.0417
     68  CZ        29.3920   14.2980   22.3850 C.ar   61  TYR61       0.1957
     69  OH        29.4170   15.0190   23.5540 O.3    61  TYR61      -0.2866
     70  N         27.1350    9.2230   15.6470 N.3    64  ASN64      -0.1225
     71  CA        26.9220    8.6940   16.9940 C.3    64  ASN64       0.1785
     72  C         26.0000    9.6030   17.8110 C.2    64  ASN64       0.2598
     73  O         25.6500    9.2860   18.9500 O.2    64  ASN64      -0.2718
     74  CB        28.2530    8.5220   17.7380 C.3    64  ASN64       0.1169
     75  CG        29.1760    7.5340   17.0730 C.2    64  ASN64       0.2627
     76  OD1       30.2820    7.8870   16.6660 O.2    64  ASN64      -0.2716
     77  ND2       28.7380    6.2850   16.9740 N.am   64  ASN64      -0.0877
     78  N         25.6020   10.7250   17.2170 N.am   65  GLY65      -0.1942
     79  CA        24.7350   11.6610   17.9080 C.3    65  GLY65       0.2014
     80  C         25.3260   13.0540   17.9480 C.2    65  GLY65       0.2639
     81  O         26.4310   13.2900   17.4600 O.2    65  GLY65      -0.2714
     82  N         24.5630   13.9970   18.4850 N.am   66  GLY66      -0.1939
     83  CA        25.0480   15.3530   18.5670 C.3    66  GLY66       0.2014
     84  C         24.0440   16.3260   19.1130 C.2    66  GLY66       0.2639
     85  O         22.9520   15.9370   19.5350 O.2    66  GLY66      -0.2714
     86  N         24.3720   17.6060   18.9660 N.am   67  TYR67      -0.1960
     87  CA        23.5650   18.6890   19.5170 C.3    67  TYR67       0.1756
     88  C         23.0480   19.6900   18.5100 C.2    67  TYR67       0.2461
     89  O         23.8290   20.2650   17.7490 O.2    67  TYR67      -0.2730
     90  CB        24.3880   19.4530   20.5660 C.3    67  TYR67       0.0574
     91  CG        25.0740   18.5640   21.5750 C.ar   67  TYR67      -0.0198
     92  CD1       26.4050   18.1350   21.3740 C.ar   67  TYR67      -0.0009
     93  CD2       24.3850   18.0990   22.7080 C.ar   67  TYR67      -0.0009
     94  CE1       27.0300   17.2560   22.2830 C.ar   67  TYR67       0.0417
     95  CE2       24.9970   17.2270   23.6210 C.ar   67  TYR67       0.0417
     96  CZ        26.3140   16.8100   23.4020 C.ar   67  TYR67       0.1957
     97  OH        26.8960   15.9470   24.2930 O.3    67  TYR67      -0.2866
     98  N         21.7210   19.9200   18.4860 N.am   68  PRO68      -0.2727
     99  CA        21.1390   20.8890   17.5530 C.3    68  PRO68       0.1402
    100  C         21.6940   22.3020   17.8080 C.2    68  PRO68       0.2269
    101  O         21.9790   23.0320   16.8620 O.2    68  PRO68      -0.2865
    102  CB        19.6560   20.8270   17.8960 C.3    68  PRO68       0.0296
    103  CG        19.4640   19.4330   18.2750 C.3    68  PRO68       0.0237
    104  CD        20.6490   19.1660   19.1620 C.3    68  PRO68       0.0939
    105  N         13.5100   18.2010   21.2060 N.3   133  VAL133     -0.1245
    106  CA        13.9820   16.8560   21.4840 C.3   133  VAL133      0.1561
    107  C         12.8630   16.0990   22.1800 C.2   133  VAL133      0.2260
    108  O         11.9650   16.7100   22.7630 O.2   133  VAL133     -0.2867
    109  CB        15.2900   16.8280   22.3350 C.3   133  VAL133      0.0252
    110  CG1       16.4380   17.5170   21.5820 C.3   133  VAL133      0.0019
    111  CG2       15.0750   17.4720   23.6980 C.3   133  VAL133      0.0019
    112  N         12.3980    8.9040   21.8380 N.3   136  ALA136     -0.1245
    113  CA        11.9850    8.0950   20.7040 C.3   136  ALA136      0.1562
    114  C         12.2740    6.6100   20.8510 C.2   136  ALA136      0.2260
    115  O         11.8160    5.8060   20.0330 O.2   136  ALA136     -0.2867
    116  CB        12.6530    8.6070   19.4520 C.3   136  ALA136      0.0290
    117  N          8.3000    4.3890   17.9770 N.3   142  GLN142     -0.1245
    118  CA         8.8740    3.8140   16.7680 C.3   142  GLN142      0.1566
    119  C          7.8670    3.2350   15.7870 C.2   142  GLN142      0.2260
    120  O          8.0020    3.4230   14.5820 O.2   142  GLN142     -0.2867
    121  CB         9.9280    2.7740   17.1280 C.3   142  GLN142      0.0367
    122  CG        11.1940    3.3940   17.6970 C.3   142  GLN142      0.0905
    123  CD        12.3120    2.3960   17.8650 C.2   142  GLN142      0.2608
    124  OE1       12.4540    1.4590   17.0720 O.2   142  GLN142     -0.2717
    125  NE2       13.1230    2.5920   18.8980 N.am  142  GLN142     -0.0878
    126  N         14.9570   11.8950   26.8780 N.3   157  VAL157     -0.1231
    127  CA        15.1900   12.4600   25.5420 C.3   157  VAL157      0.1692
    128  C         16.4350   11.9140   24.8410 C.2   157  VAL157      0.2592
    129  O         17.4980   11.8040   25.4530 O.2   157  VAL157     -0.2718
    130  CB        15.1340   14.0130   25.5560 C.3   157  VAL157      0.0266
    131  CG1       13.7590   14.4710   26.0760 C.3   157  VAL157      0.0020
    132  CG2       16.2620   14.6210   26.4040 C.3   157  VAL157      0.0020
    133  N         16.2640   11.5150   23.5810 N.am  158  ASP158     -0.1960
    134  CA        17.3430   10.8940   22.8080 C.3   158  ASP158      0.1840
    135  C         17.2810   11.1330   21.2930 C.2   158  ASP158      0.2622
    136  O         18.0700   10.5670   20.5300 O.2   158  ASP158     -0.2715
    137  CB        17.2970    9.3700   23.0590 C.3   158  ASP158      0.1450
    138  CG        15.9460    8.7300   22.6600 C.2   158  ASP158      0.3671
    139  OD1       15.1340    9.3460   21.9310 O.co2 158  ASP158     -0.2456
    140  OD2       15.6990    7.5860   23.0740 O.co2 158  ASP158     -0.2456
    141  N         16.3260   11.9520   20.8690 N.am  159  HIS159     -0.1959
    142  CA        16.1050   12.1820   19.4480 C.3   159  HIS159      0.1787
    143  C         15.7340   13.6240   19.2000 C.2   159  HIS159      0.2620
    144  O         14.8750   14.1730   19.8850 O.2   159  HIS159     -0.2715
    145  CB        14.9710   11.2540   19.0090 C.3   159  HIS159      0.0785
    146  CG        14.6880   11.2520   17.5380 C.ar  159  HIS159      0.0821
    147  ND1       15.6630   11.0660   16.5830 N.ar  159  HIS159     -0.2267
    148  CD2       13.5230   11.3840   16.8690 C.ar  159  HIS159      0.1154
    149  CE1       15.1050   11.0880   15.3820 C.ar  159  HIS159      0.1986
    150  NE2       13.8120   11.2800   15.5290 N.ar  159  HIS159     -0.2212
    151  N         16.3930   14.2200   18.2110 N.am  160  ALA160     -0.1977
    152  CA        16.1440   15.6000   17.8470 C.3   160  ALA160      0.1597
    153  C         15.3020   15.6430   16.5850 C.2   160  ALA160      0.2287
    154  O         15.5910   14.9670   15.5950 O.2   160  ALA160     -0.2864
    155  CB        17.4340   16.3310   17.6500 C.3   160  ALA160      0.0319
    156  N         12.7140   10.1520    9.5350 N.3   177  TRP177     -0.1241
    157  CA        12.7450    8.7020    9.3310 C.3   177  TRP177      0.1605
    158  C         12.0490    8.2560    8.0460 C.2   177  TRP177      0.2264
    159  O         11.5770    7.1180    7.9450 O.2   177  TRP177     -0.2867
    160  CB        12.1220    8.0000   10.5470 C.3   177  TRP177      0.0550
    161  CG        12.9230    8.1010   11.8460 C.ar  177  TRP177      0.0003
    162  CD1       14.2060    8.5700   12.0140 C.ar  177  TRP177      0.0946
    163  CD2       12.4730    7.7150   13.1460 C.ar  177  TRP177      0.0152
    164  NE1       14.5700    8.5000   13.3370 N.ar  177  TRP177     -0.2442
    165  CE2       13.5320    7.9830   14.0560 C.ar  177  TRP177      0.0810
    166  CE3       11.2710    7.1710   13.6360 C.ar  177  TRP177      0.0012
    167  CZ2       13.4230    7.7240   15.4430 C.ar  177  TRP177      0.0191
    168  CZ3       11.1570    6.9120   15.0240 C.ar  177  TRP177      0.0001
    169  CH2       12.2340    7.1940   15.9070 C.ar  177  TRP177      0.0015
    170  N         11.9200   19.6880   26.8920 N.3   204  THR204     -0.1203
    171  CA        13.2430   19.6510   27.5250 C.3   204  THR204      0.1994
    172  C         14.3280   20.5780   26.9750 C.2   204  THR204      0.2618
    173  O         14.9370   21.3370   27.7340 O.2   204  THR204     -0.2717
    174  CB        13.7680   18.1820   27.5960 C.3   204  THR204      0.1784
    175  OG1       12.7800   17.3700   28.2460 O.3   204  THR204     -0.2211
    176  CG2       15.0890   18.0670   28.3700 C.3   204  THR204      0.0376
    177  N         14.5680   20.5180   25.6700 N.am  205  SER205     -0.1951
    178  CA        15.6300   21.3140   25.0470 C.3   205  SER205      0.1924
    179  C         15.2070   21.7490   23.6410 C.2   205  SER205      0.2314
    180  O         15.2670   20.9700   22.6800 O.2   205  SER205     -0.2863
    181  CB        16.9230   20.4750   25.0210 C.3   205  SER205      0.2116
    182  OG        18.0080   21.1790   24.4700 O.3   205  SER205     -0.2180
    183  N         15.5210   24.7990   20.6260 N.3   207  PHE207     -0.1241
    184  CA        16.2930   25.9070   20.0500 C.3   207  PHE207      0.1605
    185  C         15.7780   26.3470   18.6790 C.2   207  PHE207      0.2264
    186  O         15.1730   25.5680   17.9460 O.2   207  PHE207     -0.2867
    187  CB        17.7690   25.4980   19.8630 C.3   207  PHE207      0.0534
    188  CG        18.4900   25.1900   21.1390 C.ar  207  PHE207     -0.0203
    189  CD1       19.1360   26.2100   21.8570 C.ar  207  PHE207     -0.0042
    190  CD2       18.5040   23.8790   21.6520 C.ar  207  PHE207     -0.0042
    191  CE1       19.7880   25.9250   23.0920 C.ar  207  PHE207     -0.0003
    192  CE2       19.1480   23.5820   22.8780 C.ar  207  PHE207     -0.0003
    193  CZ        19.7900   24.6090   23.6010 C.ar  207  PHE207     -0.0000
@<TRIPOS>BOND
     1     5     6    1
     2     5     2    1
     3     8     6   am
     4     1     2    1
     5     4     3    2
     6     6     7    2
     7     2     3    1
     8     3     9   am
     9     9    10    1
    10    19    18    1
    11    19    20    1
    12    18    11   am
    13    11    12    2
    14    11    10    1
    15   159   158    2
    16    10    13    1
    17   158   157    1
    18    27    26    1
    19    22    20   am
    20    22    23    1
    21    20    21    2
    22   157   156    1
    23   157   160    1
    24    13    14    1
    25    26    23    1
    26    32    33    1
    27    32    29    1
    28    23    24    1
    29    28    24   am
    30    28    29    1
    31    14    15    1
    32   160   161    1
    33    24    25    2
    34    29    30    1
    35    31    30    2
    36    15    16    2
    37    15    17   am
    38   161   162   ar
    39   161   163   ar
    40    30    34   am
    41   162   164   ar
    42    34    35    1
    43   163   166   ar
    44   163   165   ar
    45   164   165   ar
    46    38    39    1
    47   166   168   ar
    48    57    55   ar
    49    57    56   ar
    50    41    40    2
    51    55    53   ar
    52    39    40    1
    53    39    42    1
    54    36    35    1
    55    36    37    2
    56   165   167   ar
    57    56    54   ar
    58    40    44   am
    59    46    47    2
    60    46    45    1
    61    53    52   ar
    62    53    51   ar
    63   120   119    2
    64    54    51   ar
    65    52    50   ar
    66    44    45    1
    67   168   169   ar
    68    42    43    1
    69    51    49   ar
    70   149   150   ar
    71   149   147   ar
    72    45    48    1
    73   167   169   ar
    74   150   148   ar
    75    50    49   ar
    76   154   153    2
    77    70    71    1
    78    49    48    1
    79   119   118    1
    80    61    60    2
    81    60    59    1
    82   147   146   ar
    83   153   152    1
    84    76    75    2
    85   118   121    1
    86   118   117    1
    87   101   100    2
    88   148   146   ar
    89    77    75   am
    90    71    74    1
    91    71    72    1
    92   124   123    2
    93    75    74    1
    94   121   122    1
    95    78    72   am
    96    78    79    1
    97    59    58    1
    98    59    62    1
    99    81    80    2
   100   146   145    1
   101    99   100    1
   102    99   102    1
   103    99    98    1
   104   155   152    1
   105   122   123    1
   106    89    88    2
   107    72    73    2
   108   152   151    1
   109   123   125   am
   110   102   103    1
   111    79    80    1
   112   186   185    2
   113    80    82   am
   114   151   143   am
   115   103   104    1
   116    82    83    1
   117    98    88   am
   118    98   104    1
   119    88    87    1
   120    83    84    1
   121    62    63    1
   122   185   184    1
   123    86    84   am
   124    86    87    1
   125   145   142    1
   126    84    85    2
   127   143   142    1
   128   143   144    2
   129   142   141    1
   130   116   113    1
   131    87    90    1
   132   187   184    1
   133   187   188    1
   134    63    64   ar
   135    63    65   ar
   136   115   114    2
   137   184   183    1
   138    64    66   ar
   139   136   135    2
   140    90    91    1
   141    65    67   ar
   142   113   114    1
   143   113   112    1
   144   141   135   am
   145   188   190   ar
   146   188   189   ar
   147   105   106    1
   148   135   134    1
   149    92    91   ar
   150    92    94   ar
   151   106   107    1
   152   106   109    1
   153    91    93   ar
   154   110   109    1
   155   190   192   ar
   156    66    68   ar
   157   189   191   ar
   158    67    68   ar
   159   139   138   ar
   160   107   108    2
   161    94    96   ar
   162   109   111    1
   163    68    69    1
   164   138   137    1
   165   138   140   ar
   166   180   179    2
   167    93    95   ar
   168   134   137    1
   169   134   133    1
   170   192   193   ar
   171   191   193   ar
   172    96    95   ar
   173    96    97    1
   174   133   128   am
   175   179   178    1
   176   182   181    1
   177   128   129    2
   178   128   127    1
   179   181   178    1
   180   178   177    1
   181   127   130    1
   182   127   126    1
   183   130   131    1
   184   130   132    1
   185   177   172   am
   186   170   171    1
   187   172   171    1
   188   172   173    2
   189   171   174    1
   190   174   175    1
   191   174   176    1
