@<TRIPOS>MOLECULE
tmp/1cw0D00.pdb
 105 96 0 0 0
SMALL
GASTEIGER

@<TRIPOS>ATOM
      1  N         28.7980    8.1100    8.3160 N.3    18  THR18      -0.1218
      2  CA        30.1810    7.6510    8.3270 C.3    18  THR18       0.1862
      3  C         30.5620    6.9730    7.0030 C.2    18  THR18       0.2287
      4  O         31.6930    6.5320    6.8180 O.2    18  THR18      -0.2866
      5  CB        30.4340    6.7440    9.5320 C.3    18  THR18       0.1770
      6  OG1       29.5480    5.6460    9.5320 O.3    18  THR18      -0.2211
      7  CG2       30.2800    7.4620   10.8560 C.3    18  THR18       0.0375
      8  N         31.0890   11.2130   -1.0350 N.3    24  GLU24      -0.1245
      9  CA        31.2370    9.8140   -1.4200 C.3    24  GLU24       0.1567
     10  C         30.2480    9.4630   -2.5290 C.2    24  GLU24       0.2260
     11  O         30.5650    8.6960   -3.4500 O.2    24  GLU24      -0.2867
     12  CB        31.0480    8.8980   -0.2180 C.3    24  GLU24       0.0388
     13  CG        32.2810    8.8030    0.6560 C.3    24  GLU24       0.1160
     14  CD        32.1600    7.7590    1.7440 C.2    24  GLU24       0.3649
     15  OE1       31.5230    6.7040    1.5020 O.co2  24  GLU24      -0.2457
     16  OE2       32.7080    7.9960    2.8420 O.co2  24  GLU24      -0.2457
     17  N         34.2380    0.9560    1.3290 N.3    41  GLN41      -0.1245
     18  CA        34.3400    0.7970    2.7780 C.3    41  GLN41       0.1566
     19  C         35.0830   -0.5090    3.1840 C.2    41  GLN41       0.2260
     20  O         34.5380   -1.3410    3.9180 O.2    41  GLN41      -0.2867
     21  CB        32.8820    0.7010    3.2550 C.3    41  GLN41       0.0367
     22  CG        32.1220    2.0310    3.3650 C.3    41  GLN41       0.0905
     23  CD        32.9350    3.2170    3.8470 C.2    41  GLN41       0.2608
     24  OE1       33.1400    4.1960    3.1160 O.2    41  GLN41      -0.2717
     25  NE2       33.3640    3.1570    5.0910 N.am   41  GLN41      -0.0878
     26  N         42.6530    2.4460    7.4950 N.3    47  GLY47      -0.1210
     27  CA        41.8500    3.6360    7.2610 C.3    47  GLY47       0.1956
     28  C         40.5140    3.3490    6.5890 C.2    47  GLY47       0.2611
     29  O         39.7730    4.2820    6.2600 O.2    47  GLY47      -0.2717
     30  N         40.2220    2.0610    6.3720 N.am   48  ARG48      -0.1979
     31  CA        38.9930    1.6140    5.7150 C.3    48  ARG48       0.1597
     32  C         38.6950    2.4900    4.4860 C.2    48  ARG48       0.2287
     33  O         37.7930    3.3340    4.4820 O.2    48  ARG48      -0.2864
     34  CB        37.8350    1.5390    6.7070 C.3    48  ARG48       0.0334
     35  CG        36.4540    1.5440    6.0880 C.3    48  ARG48       0.0492
     36  CD        35.5370    0.5850    6.8150 C.3    48  ARG48       0.2205
     37  NE        35.0170    1.1650    8.0420 N.pl3  48  ARG48      -0.0865
     38  CZ        34.3680    0.4780    8.9840 C.cat  48  ARG48       0.5346
     39  NH1       35.0280   -0.3470    9.7870 N.pl3  48  ARG48       0.1354
     40  NH2       33.0580    0.6220    9.1230 N.pl3  48  ARG48       0.1354
     41  N         37.5630    4.4930    1.3820 N.3    50  ASP50      -0.1239
     42  CA        36.1980    4.7650    0.9370 C.3    50  ASP50       0.1674
     43  C         35.8820    3.9840   -0.3210 C.2    50  ASP50       0.2266
     44  O         34.7630    3.4900   -0.4920 O.2    50  ASP50      -0.2867
     45  CB        36.0090    6.2500    0.6510 C.3    50  ASP50       0.1410
     46  CG        36.0910    7.0830    1.8930 C.2    50  ASP50       0.3668
     47  OD1       35.7320    6.5760    2.9710 O.co2  50  ASP50      -0.2456
     48  OD2       36.5160    8.2370    1.7890 O.co2  50  ASP50      -0.2456
     49  N         39.1180   16.3100    8.1670 N.3    68  HIS68      -0.1241
     50  CA        40.5110   15.9770    7.8770 C.3    68  HIS68       0.1621
     51  C         41.4260   17.1960    7.8460 C.2    68  HIS68       0.2264
     52  O         42.5800   17.1060    7.4370 O.2    68  HIS68      -0.2867
     53  CB        40.6010   15.1770    6.5810 C.3    68  HIS68       0.0745
     54  CG        39.7930   13.9120    6.6290 C.ar   68  HIS68       0.0817
     55  ND1       40.2860   12.7180    7.1200 N.ar   68  HIS68      -0.2268
     56  CD2       38.5150   13.6650    6.2630 C.ar   68  HIS68       0.1154
     57  CE1       39.3520   11.7900    7.0500 C.ar   68  HIS68       0.1986
     58  NE2       38.2640   12.3410    6.5340 N.ar   68  HIS68      -0.2212
     59  N         41.1460   16.4780   18.5790 N.3    88  LYS88      -0.1245
     60  CA        40.4300   15.4830   17.7650 C.3    88  LYS88       0.1561
     61  C         40.8000   15.6030   16.2720 C.2    88  LYS88       0.2260
     62  O         41.1860   14.6230   15.6360 O.2    88  LYS88      -0.2867
     63  CB        38.9050   15.5780   18.0080 C.3    88  LYS88       0.0271
     64  CG        38.0240   14.9650   16.9270 C.3    88  LYS88       0.0035
     65  CD        37.3720   13.6780   17.4160 C.3    88  LYS88       0.0206
     66  CE        35.9820   13.4800   16.8250 C.3    88  LYS88       0.1093
     67  NZ        35.0310   12.9330   17.8380 N.3    88  LYS88      -0.1314
     68  N         43.0370   13.1300   13.8180 N.3    92  ASN92      -0.1240
     69  CA        42.5460   12.6490   12.5170 C.3    92  ASN92       0.1653
     70  C         43.6400   12.8260   11.4690 C.2    92  ASN92       0.2266
     71  O         43.9040   11.9240   10.6770 O.2    92  ASN92      -0.2867
     72  CB        41.2980   13.4220   12.0600 C.3    92  ASN92       0.1155
     73  CG        40.0370   13.0710   12.8270 C.2    92  ASN92       0.2627
     74  OD1       40.0250   12.1570   13.6450 O.2    92  ASN92      -0.2716
     75  ND2       38.9620   13.8040   12.5600 N.am   92  ASN92      -0.0877
     76  N         46.3660   10.2880   11.9650 N.3    95  ARG95      -0.1245
     77  CA        45.9120    8.9430   11.5700 C.3    95  ARG95       0.1563
     78  C         45.8760    8.8230   10.0360 C.2    95  ARG95       0.2260
     79  O         46.3170    7.8140    9.4630 O.2    95  ARG95      -0.2867
     80  CB        44.5470    8.6180   12.2090 C.3    95  ARG95       0.0307
     81  CG        43.7760    7.5000   11.5290 C.3    95  ARG95       0.0489
     82  CD        42.5240    7.0780   12.3060 C.3    95  ARG95       0.2205
     83  NE        42.4350    7.6790   13.6390 N.pl3  95  ARG95      -0.0865
     84  CZ        41.6160    8.6750   13.9730 C.cat  95  ARG95       0.5346
     85  NH1       40.7930    9.2180   13.0690 N.pl3  95  ARG95       0.1354
     86  NH2       41.6230    9.1330   15.2160 N.pl3  95  ARG95       0.1354
     87  N         49.3240    8.1050    8.7670 N.3    98  ARG98      -0.1231
     88  CA        49.6890    6.7170    9.0640 C.3    98  ARG98       0.1694
     89  C         48.9650    5.7350    8.1330 C.2    98  ARG98       0.2592
     90  O         49.5700    4.7830    7.6400 O.2    98  ARG98      -0.2718
     91  CB        49.4030    6.3780   10.5350 C.3    98  ARG98       0.0321
     92  CG        49.2930    4.8820   10.8200 C.3    98  ARG98       0.0489
     93  CD        48.6300    4.6060   12.1600 C.3    98  ARG98       0.2205
     94  NE        47.2830    4.0580   11.9970 N.pl3  98  ARG98      -0.0865
     95  CZ        46.3280    4.1170   12.9260 C.cat  98  ARG98       0.5346
     96  NH1       46.6210    4.5010   14.1640 N.pl3  98  ARG98       0.1354
     97  NH2       45.0790    3.7860   12.6180 N.pl3  98  ARG98       0.1354
     98  N         47.6640    5.9690    7.9020 N.am   99  ASP99      -0.1974
     99  CA        46.8700    5.0950    7.0330 C.3    99  ASP99       0.1709
    100  C         47.4780    5.0450    5.6420 C.2    99  ASP99       0.2293
    101  O         47.6240    3.9740    5.0550 O.2    99  ASP99      -0.2864
    102  CB        45.4190    5.5760    6.9240 C.3    99  ASP99       0.1436
    103  CG        44.6090    5.4320    8.2020 C.2    99  ASP99       0.3671
    104  OD1       44.9020    4.5170    9.0080 O.co2  99  ASP99      -0.2456
    105  OD2       43.6670    6.2400    8.3910 O.co2  99  ASP99      -0.2456
@<TRIPOS>BOND
     1    11    10    2
     2    10     9    1
     3     9     8    1
     4     9    12    1
     5    44    43    2
     6    43    42    1
     7    12    13    1
     8    45    42    1
     9    45    46    1
    10    13    14    1
    11    42    41    1
    12    17    18    1
    13    15    14   ar
    14    14    16   ar
    15    48    46   ar
    16    46    47   ar
    17    18    19    1
    18    18    21    1
    19    24    23    2
    20    19    20    2
    21    21    22    1
    22    22    23    1
    23    23    25   am
    24    33    32    2
    25    32    31    1
    26   101   100    2
    27   100    99    1
    28    31    30    1
    29    31    34    1
    30    35    34    1
    31    35    36    1
    32    29    28    2
    33    56    58   ar
    34    56    54   ar
    35    30    28   am
    36    58    57   ar
    37    53    54    1
    38    53    50    1
    39    28    27    1
    40    54    55   ar
    41    36    37    1
    42     4     3    2
    43   102    99    1
    44   102   103    1
    45     3     2    1
    46    99    98    1
    47    57    55   ar
    48    27    26    1
    49    52    51    2
    50    90    89    2
    51    51    50    1
    52    50    49    1
    53    98    89   am
    54    37    38    2
    55    89    88    1
    56   103   105   ar
    57   103   104   ar
    58     1     2    1
    59     2     5    1
    60    87    88    1
    61    38    40    1
    62    38    39    1
    63    88    91    1
    64    79    78    2
    65     6     5    1
    66     5     7    1
    67    78    77    1
    68    91    92    1
    69    71    70    2
    70    92    93    1
    71    70    69    1
    72    81    80    1
    73    81    82    1
    74    77    76    1
    75    77    80    1
    76    94    93    1
    77    94    95    2
    78    72    69    1
    79    72    73    1
    80    82    83    1
    81    69    68    1
    82    75    73   am
    83    97    95    1
    84    73    74    2
    85    95    96    1
    86    85    84    1
    87    83    84    2
    88    84    86    1
    89    62    61    2
    90    61    60    1
    91    66    65    1
    92    66    67    1
    93    64    65    1
    94    64    63    1
    95    60    63    1
    96    60    59    1
