@<TRIPOS>MOLECULE
tmp/1cw2A00.pdb
 162 153 0 0 0
SMALL
GASTEIGER

@<TRIPOS>ATOM
      1  N         45.4350   33.4280   16.2490 N.3    21  PHE21      -0.1241
      2  CA        46.6990   33.0580   16.8680 C.3    21  PHE21       0.1605
      3  C         47.6780   34.2320   16.8350 C.2    21  PHE21       0.2264
      4  O         47.7250   34.9750   15.8570 O.2    21  PHE21      -0.2867
      5  CB        47.3470   31.8670   16.1420 C.3    21  PHE21       0.0534
      6  CG        48.7890   31.6170   16.5580 C.ar   21  PHE21      -0.0203
      7  CD1       49.8330   32.3980   16.0370 C.ar   21  PHE21      -0.0042
      8  CD2       49.0940   30.6490   17.5160 C.ar   21  PHE21      -0.0042
      9  CE1       51.1320   32.2200   16.4680 C.ar   21  PHE21      -0.0003
     10  CE2       50.4000   30.4610   17.9530 C.ar   21  PHE21      -0.0003
     11  CZ        51.4200   31.2480   17.4300 C.ar   21  PHE21      -0.0000
     12  N         44.6020   31.2490   20.7730 N.3    48  GLU48      -0.1245
     13  CA        45.6790   30.2720   20.6170 C.3    48  GLU48       0.1567
     14  C         46.9210   31.1560   20.7080 C.2    48  GLU48       0.2260
     15  O         47.1350   32.0150   19.8540 O.2    48  GLU48      -0.2867
     16  CB        45.6050   29.5550   19.2670 C.3    48  GLU48       0.0388
     17  CG        46.3910   28.2380   19.1960 C.3    48  GLU48       0.1160
     18  CD        45.9910   27.1960   20.2320 C.2    48  GLU48       0.3649
     19  OE1       44.7830   27.0160   20.5120 O.co2  48  GLU48      -0.2457
     20  OE2       46.9010   26.5190   20.7540 O.co2  48  GLU48      -0.2457
     21  N         57.5750   23.7620   13.2640 N.3    58  ALA58      -0.1231
     22  CA        56.2900   23.4620   12.6430 C.3    58  ALA58       0.1694
     23  C         55.6860   24.7520   12.0940 C.2    58  ALA58       0.2592
     24  O         54.5570   24.7610   11.5920 O.2    58  ALA58      -0.2718
     25  CB        55.3480   22.8150   13.6560 C.3    58  ALA58       0.0304
     26  N         56.4830   25.8150   12.1090 N.am   59  ASP59      -0.1974
     27  CA        56.0290   27.1200   11.6630 C.3    59  ASP59       0.1709
     28  C         56.7360   27.6940   10.4440 C.2    59  ASP59       0.2293
     29  O         57.9640   27.6130   10.3280 O.2    59  ASP59      -0.2864
     30  CB        56.1390   28.1290   12.8190 C.3    59  ASP59       0.1436
     31  CG        55.0810   27.9100   13.8970 C.2    59  ASP59       0.3671
     32  OD1       53.8770   28.0060   13.5790 O.co2  59  ASP59      -0.2456
     33  OD2       55.4490   27.6540   15.0600 O.co2  59  ASP59      -0.2456
     34  N         55.2080   33.1850   11.2430 N.3    63  ILE63      -0.1245
     35  CA        55.2620   32.9090   12.6730 C.3    63  ILE63       0.1561
     36  C         56.7100   32.7680   13.1770 C.2    63  ILE63       0.2260
     37  O         57.0080   33.0570   14.3360 O.2    63  ILE63      -0.2867
     38  CB        54.3840   31.6920   13.0330 C.3    63  ILE63       0.0252
     39  CG1       52.9130   32.0440   12.7780 C.3    63  ILE63       0.0019
     40  CG2       54.5490   31.3190   14.5030 C.3    63  ILE63       0.0019
     41  CD1       51.9540   30.8770   12.9790 C.3    63  ILE63       0.0001
     42  N         50.4030   27.2440   22.4470 N.3    99  LEU99      -0.1245
     43  CA        51.0690   26.4880   21.3850 C.3    99  LEU99       0.1561
     44  C         52.4770   26.3930   21.9640 C.2    99  LEU99       0.2260
     45  O         53.1600   27.4170   22.1250 O.2    99  LEU99      -0.2867
     46  CB        51.0950   27.2610   20.0580 C.3    99  LEU99       0.0270
     47  CG        51.7840   26.5510   18.8720 C.3    99  LEU99       0.0019
     48  CD1       53.3080   26.6990   18.8930 C.3    99  LEU99       0.0001
     49  CD2       51.3970   25.0810   18.8400 C.3    99  LEU99       0.0001
     50  N         56.3750   24.0380   22.2830 N.3   101  TYR101     -0.1241
     51  CA        57.2970   23.0700   21.6830 C.3   101  TYR101      0.1605
     52  C         57.7400   22.2860   22.9230 C.2   101  TYR101      0.2264
     53  O         57.7490   22.8370   24.0260 O.2   101  TYR101     -0.2867
     54  CB        58.4430   23.7300   20.9190 C.3   101  TYR101      0.0534
     55  CG        58.0070   24.1190   19.5250 C.ar  101  TYR101     -0.0201
     56  CD1       58.1100   23.2210   18.4680 C.ar  101  TYR101     -0.0009
     57  CD2       57.4470   25.3730   19.2760 C.ar  101  TYR101     -0.0009
     58  CE1       57.6630   23.5640   17.1850 C.ar  101  TYR101      0.0417
     59  CE2       56.9930   25.7280   18.0020 C.ar  101  TYR101      0.0417
     60  CZ        57.1050   24.8150   16.9650 C.ar  101  TYR101      0.1957
     61  OH        56.6450   25.1420   15.7130 O.3   101  TYR101     -0.2866
     62  N         48.8290   22.4870   23.4120 N.3   126  LEU126     -0.1245
     63  CA        49.1620   21.7240   22.2180 C.3   126  LEU126      0.1561
     64  C         50.6840   21.7980   22.1570 C.2   126  LEU126      0.2260
     65  O         51.2460   22.9030   22.1950 O.2   126  LEU126     -0.2867
     66  CB        48.5830   22.3940   20.9610 C.3   126  LEU126      0.0270
     67  CG        49.1700   22.0240   19.5800 C.3   126  LEU126      0.0019
     68  CD1       49.0360   20.5250   19.3190 C.3   126  LEU126      0.0001
     69  CD2       48.4830   22.8250   18.4620 C.3   126  LEU126      0.0001
     70  N         53.4560   21.0810   19.7390 N.3   128  ALA128     -0.1245
     71  CA        53.6410   20.8070   18.3170 C.3   128  ALA128      0.1562
     72  C         54.5090   19.6150   17.9220 C.2   128  ALA128      0.2260
     73  O         54.1830   18.9350   16.9450 O.2   128  ALA128     -0.2867
     74  CB        54.0760   22.0760   17.5810 C.3   128  ALA128      0.0290
     75  N         46.6120   16.5810   17.3940 N.3   152  ILE152     -0.1245
     76  CA        46.4780   16.9160   15.9850 C.3   152  ILE152      0.1561
     77  C         46.0390   15.7170   15.1450 C.2   152  ILE152      0.2260
     78  O         46.5910   14.6200   15.2590 O.2   152  ILE152     -0.2867
     79  CB        47.7940   17.5470   15.4330 C.3   152  ILE152      0.0252
     80  CG1       47.9480   18.9610   16.0080 C.3   152  ILE152      0.0019
     81  CG2       47.8040   17.5740   13.8980 C.3   152  ILE152      0.0019
     82  CD1       49.0710   19.7880   15.4070 C.3   152  ILE152      0.0001
     83  N         42.3700   19.2660   17.0200 N.3   174  TYR174     -0.1241
     84  CA        43.0070   20.1350   16.0370 C.3   174  TYR174      0.1605
     85  C         42.9740   19.4680   14.6640 C.2   174  TYR174      0.2264
     86  O         43.7360   18.5360   14.4100 O.2   174  TYR174     -0.2867
     87  CB        44.4480   20.4310   16.4520 C.3   174  TYR174      0.0534
     88  CG        45.0080   21.7000   15.8490 C.ar  174  TYR174     -0.0201
     89  CD1       45.2460   21.7970   14.4770 C.ar  174  TYR174     -0.0009
     90  CD2       45.3000   22.8070   16.6500 C.ar  174  TYR174     -0.0009
     91  CE1       45.7590   22.9570   13.9140 C.ar  174  TYR174      0.0417
     92  CE2       45.8090   23.9730   16.0990 C.ar  174  TYR174      0.0417
     93  CZ        46.0410   24.0430   14.7190 C.ar  174  TYR174      0.1957
     94  OH        46.5560   25.1930   14.1430 O.3   174  TYR174     -0.2866
     95  N         52.8810   26.0200    9.1930 N.3   182  THR182     -0.1203
     96  CA        51.9360   27.1370    9.2690 C.3   182  THR182      0.1994
     97  C         52.2700   28.1900    8.2110 C.2   182  THR182      0.2618
     98  O         53.4460   28.4390    7.9130 O.2   182  THR182     -0.2717
     99  CB        51.9580   27.8260   10.6590 C.3   182  THR182      0.1784
    100  OG1       53.2500   28.4010   10.8930 O.3   182  THR182     -0.2211
    101  CG2       51.6410   26.8330   11.7600 C.3   182  THR182      0.0376
    102  N         51.2430   28.8140    7.6510 N.am  183  GLY183     -0.1942
    103  CA        51.4720   29.8330    6.6440 C.3   183  GLY183      0.2014
    104  C         50.2170   30.1200    5.8520 C.2   183  GLY183      0.2638
    105  O         49.5710   29.1900    5.3570 O.2   183  GLY183     -0.2714
    106  N         49.8530   31.3990    5.7600 N.am  184  ALA184     -0.1977
    107  CA        48.6630   31.8240    5.0140 C.3   184  ALA184      0.1597
    108  C         48.9700   31.7690    3.5160 C.2   184  ALA184      0.2287
    109  O         48.0870   31.9610    2.6770 O.2   184  ALA184     -0.2864
    110  CB        48.2630   33.2430    5.4230 C.3   184  ALA184      0.0319
    111  N         45.5200   25.8310    9.8350 N.3   209  PHE209     -0.1227
    112  CA        46.5180   25.8760    8.7560 C.3   209  PHE209      0.1736
    113  C         45.9340   26.4150    7.4480 C.2   209  PHE209      0.2596
    114  O         44.9850   25.8350    6.8840 O.2   209  PHE209     -0.2718
    115  CB        47.1800   24.5150    8.4850 C.3   209  PHE209      0.0547
    116  CG        48.2810   24.1580    9.4560 C.ar  209  PHE209     -0.0202
    117  CD1       49.4330   23.5010    9.0060 C.ar  209  PHE209     -0.0042
    118  CD2       48.1610   24.4490   10.8150 C.ar  209  PHE209     -0.0042
    119  CE1       50.4520   23.1350    9.9020 C.ar  209  PHE209     -0.0003
    120  CE2       49.1720   24.0870   11.7140 C.ar  209  PHE209     -0.0003
    121  CZ        50.3190   23.4270   11.2510 C.ar  209  PHE209     -0.0000
    122  N         46.5000   27.5310    6.9880 N.am  210  GLY210     -0.1942
    123  CA        46.0830   28.1550    5.7410 C.3   210  GLY210      0.2014
    124  C         44.7960   28.9730    5.7110 C.2   210  GLY210      0.2638
    125  O         44.4650   29.5470    4.6680 O.2   210  GLY210     -0.2714
    126  N         44.0760   29.0420    6.8290 N.am  211  ILE211     -0.1977
    127  CA        42.8180   29.7980    6.8930 C.3   211  ILE211      0.1596
    128  C         43.1180   31.2990    6.9380 C.2   211  ILE211      0.2287
    129  O         43.5990   31.8050    7.9570 O.2   211  ILE211     -0.2864
    130  CB        41.9960   29.4140    8.1540 C.3   211  ILE211      0.0276
    131  CG1       41.7940   27.9010    8.2370 C.3   211  ILE211      0.0022
    132  CG2       40.6630   30.1680    8.1770 C.3   211  ILE211      0.0022
    133  CD1       40.8750   27.3230    7.2040 C.3   211  ILE211      0.0001
    134  N         40.9100   28.1190   13.0700 N.3   229  ILE229     -0.1231
    135  CA        42.0330   28.8480   13.6790 C.3   229  ILE229      0.1692
    136  C         42.7800   29.6020   12.5580 C.2   229  ILE229      0.2593
    137  O         42.9810   29.0560   11.4720 O.2   229  ILE229     -0.2718
    138  CB        43.0300   27.8590   14.3930 C.3   229  ILE229      0.0266
    139  CG1       42.3480   27.1980   15.5930 C.3   229  ILE229      0.0019
    140  CG2       44.3230   28.5900   14.8240 C.3   229  ILE229      0.0020
    141  CD1       43.0240   25.9160   16.0680 C.3   229  ILE229      0.0001
    142  N         43.1710   30.8480   12.8130 N.am  230  SER230     -0.1938
    143  CA        43.9000   31.6500   11.8300 C.3   230  SER230      0.2055
    144  C         45.0960   32.3340   12.4920 C.2   230  SER230      0.2644
    145  O         44.9160   33.1760   13.3770 O.2   230  SER230     -0.2714
    146  CB        42.9810   32.7090   11.2160 C.3   230  SER230      0.2130
    147  OG        43.6620   33.4890   10.2470 O.3   230  SER230     -0.2179
    148  N         46.3040   32.0220   12.0160 N.am  231  GLY231     -0.1939
    149  CA        47.5090   32.6000   12.5990 C.3   231  GLY231      0.2014
    150  C         48.3160   33.5590   11.7380 C.2   231  GLY231      0.2640
    151  O         48.3900   34.7440   12.0380 O.2   231  GLY231     -0.2714
    152  N         48.9030   33.0650   10.6550 N.am  232  SER232     -0.1935
    153  CA        49.7200   33.9000    9.7740 C.3   232  SER232      0.2055
    154  C         48.9910   35.1380    9.2310 C.2   232  SER232      0.2642
    155  O         49.5950   36.2130    9.0900 O.2   232  SER232     -0.2714
    156  CB        50.2890   33.0600    8.6240 C.3   232  SER232      0.2130
    157  OG        51.0650   31.9730    9.1160 O.3   232  SER232     -0.2179
    158  N         47.7000   34.9940    8.9280 N.am  233  ALA233     -0.1977
    159  CA        46.9180   36.1190    8.4380 C.3   233  ALA233      0.1597
    160  C         46.8680   37.2020    9.5170 C.2   233  ALA233      0.2287
    161  O         46.9020   38.3990    9.2240 O.2   233  ALA233     -0.2864
    162  CB        45.5190   35.6720    8.0670 C.3   233  ALA233      0.0319
@<TRIPOS>BOND
     1   109   108    2
     2   108   107    1
     3   125   124    2
     4   107   110    1
     5   107   106    1
     6   105   104    2
     7   124   123    1
     8   124   126   am
     9   123   122    1
    10   106   104   am
    11   104   103    1
    12   103   102    1
    13   126   127    1
    14   114   113    2
    15   127   128    1
    16   127   130    1
    17   128   129    2
    18   122   113   am
    19   133   131    1
    20   113   112    1
    21   102    97   am
    22    98    97    2
    23   162   159    1
    24   130   132    1
    25   130   131    1
    26    97    96    1
    27   159   158    1
    28   159   160    1
    29   115   112    1
    30   115   116    1
    31   156   157    1
    32   156   153    1
    33   112   111    1
    34   158   154   am
    35   117   116   ar
    36   117   119   ar
    37   155   154    2
    38    95    96    1
    39   161   160    2
    40   154   153    1
    41    96    99    1
    42   116   118   ar
    43   153   152    1
    44   119   121   ar
    45   147   146    1
    46    29    28    2
    47    28    27    1
    48   152   150   am
    49    99   100    1
    50    99   101    1
    51   118   120   ar
    52   146   143    1
    53    34    35    1
    54   121   120   ar
    55   137   136    2
    56    24    23    2
    57    27    26    1
    58    27    30    1
    59   150   151    2
    60   150   149    1
    61   143   144    1
    62   143   142    1
    63   148   144   am
    64   148   149    1
    65    23    26   am
    66    23    22    1
    67   144   145    2
    68   136   142   am
    69   136   135    1
    70    22    21    1
    71    22    25    1
    72    35    38    1
    73    35    36    1
    74    39    41    1
    75    39    38    1
    76    30    31    1
    77    38    40    1
    78   134   135    1
    79    36    37    2
    80    32    31   ar
    81   135   138    1
    82    31    33   ar
    83    81    79    1
    84    91    89   ar
    85    91    93   ar
    86    94    93    1
    87   138   140    1
    88   138   139    1
    89    86    85    2
    90    89    88   ar
    91    85    84    1
    92    93    92   ar
    93    77    78    2
    94    77    76    1
    95    82    80    1
    96    79    76    1
    97    79    80    1
    98   139   141    1
    99    61    60    1
   100    88    87    1
   101    88    90   ar
   102     4     3    2
   103    76    75    1
   104    84    87    1
   105    84    83    1
   106     7     9   ar
   107     7     6   ar
   108    92    90   ar
   109     5     6    1
   110     5     2    1
   111     1     2    1
   112     9    11   ar
   113     6     8   ar
   114     3     2    1
   115    73    72    2
   116    60    58   ar
   117    60    59   ar
   118    58    56   ar
   119    11    10   ar
   120     8    10   ar
   121    74    71    1
   122    72    71    1
   123    59    57   ar
   124    71    70    1
   125    69    67    1
   126    56    55   ar
   127    49    47    1
   128    47    48    1
   129    47    46    1
   130    17    16    1
   131    17    18    1
   132    16    13    1
   133    57    55   ar
   134    68    67    1
   135    55    54    1
   136    67    66    1
   137    15    14    2
   138    46    43    1
   139    18    19   ar
   140    18    20   ar
   141    13    14    1
   142    13    12    1
   143    54    51    1
   144    66    63    1
   145    43    44    1
   146    43    42    1
   147    51    50    1
   148    51    52    1
   149    44    45    2
   150    64    65    2
   151    64    63    1
   152    63    62    1
   153    52    53    2
