@<TRIPOS>MOLECULE
tmp/1cw4A00.pdb
 113 102 0 0 0
SMALL
GASTEIGER

@<TRIPOS>ATOM
      1  N         90.2390   59.4450    1.9310 N.3   102  LEU102     -0.1245
      2  CA        89.6950   58.2000    1.4130 C.3   102  LEU102      0.1561
      3  C         88.9210   58.4930    0.1440 C.2   102  LEU102      0.2260
      4  O         88.2590   59.5270    0.0300 O.2   102  LEU102     -0.2867
      5  CB        88.7380   57.6000    2.4410 C.3   102  LEU102      0.0270
      6  CG        89.0460   56.2810    3.1430 C.3   102  LEU102      0.0019
      7  CD1       90.4890   56.2270    3.6390 C.3   102  LEU102      0.0001
      8  CD2       88.0650   56.1250    4.2900 C.3   102  LEU102      0.0001
      9  N         86.1890   56.7490   -2.8420 N.3   104  THR104     -0.1218
     10  CA        85.2290   55.6910   -3.0860 C.3   104  THR104      0.1862
     11  C         85.2650   55.3790   -4.5790 C.2   104  THR104      0.2287
     12  O         85.3270   56.2860   -5.4070 O.2   104  THR104     -0.2866
     13  CB        83.8170   56.1600   -2.6690 C.3   104  THR104      0.1770
     14  OG1       83.8630   56.6170   -1.3120 O.3   104  THR104     -0.2211
     15  CG2       82.8010   55.0290   -2.7760 C.3   104  THR104      0.0375
     16  N         79.9000   56.3740   -0.6060 N.3   112  SER112     -0.1217
     17  CA        80.9830   57.0180    0.1330 C.3   112  SER112      0.1889
     18  C         81.4810   56.2450    1.3470 C.2   112  SER112      0.2288
     19  O         80.7130   55.9560    2.2700 O.2   112  SER112     -0.2866
     20  CB        80.5550   58.4310    0.5480 C.3   112  SER112      0.2089
     21  OG        81.4500   58.9820    1.4950 O.3   112  SER112     -0.2183
     22  N         83.6450   57.3470    3.4740 N.3   114  ASN114     -0.1225
     23  CA        83.7260   58.2910    4.5850 C.3   114  ASN114      0.1785
     24  C         82.3830   58.3230    5.2970 C.2   114  ASN114      0.2597
     25  O         82.3220   58.2970    6.5230 O.2   114  ASN114     -0.2718
     26  CB        84.0840   59.6990    4.0990 C.3   114  ASN114      0.1169
     27  CG        85.4710   59.7700    3.4910 C.2   114  ASN114      0.2627
     28  OD1       86.4580   59.4420    4.1330 O.2   114  ASN114     -0.2716
     29  ND2       85.5460   60.1840    2.2370 N.am  114  ASN114     -0.0877
     30  N         81.3030   58.3580    4.5220 N.am  115  VAL115     -0.1980
     31  CA        79.9690   58.3770    5.1030 C.3   115  VAL115      0.1595
     32  C         79.6660   57.0330    5.7590 C.2   115  VAL115      0.2287
     33  O         79.0230   56.9790    6.8150 O.2   115  VAL115     -0.2864
     34  CB        78.8940   58.7210    4.0580 C.3   115  VAL115      0.0276
     35  CG1       77.5010   58.5070    4.6330 C.3   115  VAL115      0.0022
     36  CG2       79.0570   60.1770    3.6220 C.3   115  VAL115      0.0022
     37  N         81.1410   56.9670    9.1970 N.3   118  ARG118     -0.1245
     38  CA        80.3610   57.8170   10.0860 C.3   118  ARG118      0.1563
     39  C         79.0370   57.1980   10.5140 C.2   118  ARG118      0.2260
     40  O         78.7180   57.1690   11.7070 O.2   118  ARG118     -0.2867
     41  CB        80.0940   59.1630    9.4190 C.3   118  ARG118      0.0307
     42  CG        81.3500   59.8990    9.0300 C.3   118  ARG118      0.0489
     43  CD        81.0320   61.1260    8.2090 C.3   118  ARG118      0.2205
     44  NE        82.2550   61.8110    7.8030 N.pl3 118  ARG118     -0.0865
     45  CZ        82.3610   62.5790    6.7250 C.cat 118  ARG118      0.5346
     46  NH1       83.5220   63.1550    6.4410 N.pl3 118  ARG118      0.1354
     47  NH2       81.3110   62.7750    5.9340 N.pl3 118  ARG118      0.1354
     48  N         84.1410   70.5490   12.7920 N.3   128  ARG128     -0.1245
     49  CA        85.0810   71.2420   11.9190 C.3   128  ARG128      0.1563
     50  C         85.3980   72.6590   12.3850 C.2   128  ARG128      0.2260
     51  O         84.6240   73.5840   12.1470 O.2   128  ARG128     -0.2867
     52  CB        84.5150   71.3150   10.4960 C.3   128  ARG128      0.0307
     53  CG        84.2570   69.9840    9.8240 C.3   128  ARG128      0.0489
     54  CD        85.5240   69.4200    9.2370 C.3   128  ARG128      0.2205
     55  NE        85.2920   68.1070    8.6380 N.pl3 128  ARG128     -0.0865
     56  CZ        85.1330   67.8770    7.3360 C.cat 128  ARG128      0.5346
     57  NH1       84.9220   66.6400    6.9100 N.pl3 128  ARG128      0.1354
     58  NH2       85.1990   68.8730    6.4590 N.pl3 128  ARG128      0.1354
     59  N         78.3480   69.8130   12.5140 N.3   152  ARG152     -0.1245
     60  CA        77.5410   69.2990   11.4190 C.3   152  ARG152      0.1563
     61  C         76.9360   67.9390   11.7810 C.2   152  ARG152      0.2260
     62  O         77.6480   67.0130   12.1810 O.2   152  ARG152     -0.2867
     63  CB        78.4160   69.2020   10.1630 C.3   152  ARG152      0.0307
     64  CG        77.8830   68.3230    9.0320 C.3   152  ARG152      0.0489
     65  CD        78.9950   68.0660    8.0210 C.3   152  ARG152      0.2205
     66  NE        78.5790   67.1810    6.9410 N.pl3 152  ARG152     -0.0865
     67  CZ        79.4170   66.6100    6.0740 C.cat 152  ARG152      0.5346
     68  NH1       78.9440   65.8170    5.1230 N.pl3 152  ARG152      0.1354
     69  NH2       80.7290   66.8200    6.1560 N.pl3 152  ARG152      0.1354
     70  N         72.0510   63.2810    2.8590 N.3   159  TYR159     -0.1241
     71  CA        73.3840   62.7030    2.9180 C.3   159  TYR159      0.1605
     72  C         73.3060   61.2480    3.3910 C.2   159  TYR159      0.2264
     73  O         74.2850   60.5140    3.3110 O.2   159  TYR159     -0.2867
     74  CB        74.2550   63.5320    3.8730 C.3   159  TYR159      0.0534
     75  CG        75.5780   63.9950    3.3060 C.ar  159  TYR159     -0.0201
     76  CD1       75.7000   65.2440    2.6890 C.ar  159  TYR159     -0.0009
     77  CD2       76.7140   63.1880    3.3900 C.ar  159  TYR159     -0.0009
     78  CE1       76.9270   65.6790    2.1680 C.ar  159  TYR159      0.0417
     79  CE2       77.9350   63.6140    2.8750 C.ar  159  TYR159      0.0417
     80  CZ        78.0340   64.8570    2.2650 C.ar  159  TYR159      0.1957
     81  OH        79.2540   65.2610    1.7630 O.3   159  TYR159     -0.2866
     82  N         78.3940   70.5030    5.3580 N.3   306  ASP306     -0.1239
     83  CA        79.4170   70.1810    4.3690 C.3   306  ASP306      0.1674
     84  C         79.7550   71.4470    3.5810 C.2   306  ASP306      0.2266
     85  O         80.9300   71.7660    3.3870 O.2   306  ASP306     -0.2867
     86  CB        78.9070   69.0900    3.4240 C.3   306  ASP306      0.1410
     87  CG        79.8740   68.7880    2.2910 C.2   306  ASP306      0.3668
     88  OD1       79.4220   68.7380    1.1330 O.co2 306  ASP306     -0.2456
     89  OD2       81.0720   68.5940    2.5500 O.co2 306  ASP306     -0.2456
     90  N         83.3470   73.7500    4.0110 N.3   310  ASP310     -0.1239
     91  CA        84.2120   73.9300    2.8480 C.3   310  ASP310      0.1674
     92  C         84.3800   75.4030    2.4880 C.2   310  ASP310      0.2266
     93  O         85.4930   75.8570    2.2300 O.2   310  ASP310     -0.2867
     94  CB        83.7020   73.1260    1.6520 C.3   310  ASP310      0.1410
     95  CG        84.0210   71.6490    1.7740 C.2   310  ASP310      0.3668
     96  OD1       84.6630   71.2450    2.7620 O.co2 310  ASP310     -0.2456
     97  OD2       83.6440   70.8780    0.8750 O.co2 310  ASP310     -0.2456
     98  N         90.1090   62.9450   10.8970 N.3   335  GLU335     -0.1245
     99  CA        90.4690   62.7580    9.4930 C.3   335  GLU335      0.1567
    100  C         90.9770   63.9650    8.7250 C.2   335  GLU335      0.2260
    101  O         90.6120   65.1060    9.0170 O.2   335  GLU335     -0.2867
    102  CB        89.2280   62.2600    8.7450 C.3   335  GLU335      0.0388
    103  CG        88.1080   63.3070    8.7350 C.3   335  GLU335      0.1160
    104  CD        86.8180   62.8380    8.0900 C.2   335  GLU335      0.3649
    105  OE1       86.8030   61.7600    7.4690 O.co2 335  GLU335     -0.2457
    106  OE2       85.8090   63.5580    8.2000 O.co2 335  GLU335     -0.2457
    107  N         90.7010   66.3090    5.7990 N.3   337  THR337     -0.1218
    108  CA        89.4290   66.6740    5.1700 C.3   337  THR337      0.1862
    109  C         89.4490   66.9340    3.6670 C.2   337  THR337      0.2287
    110  O         88.4090   67.1980    3.0590 O.2   337  THR337     -0.2866
    111  CB        88.8370   67.9050    5.8560 C.3   337  THR337      0.1770
    112  OG1       89.7390   69.0090    5.7000 O.3   337  THR337     -0.2211
    113  CG2       88.6110   67.6250    7.3410 C.3   337  THR337      0.0375
@<TRIPOS>BOND
     1    12    11    2
     2    11    10    1
     3    10     9    1
     4    10    13    1
     5    15    13    1
     6    13    14    1
     7    16    17    1
     8     4     3    2
     9    17    20    1
    10    17    18    1
    11     3     2    1
    12    20    21    1
    13    97    95   ar
    14    88    87   ar
    15    18    19    2
    16     2     1    1
    17     2     5    1
    18    94    95    1
    19    94    91    1
    20    81    80    1
    21    95    96   ar
    22    78    80   ar
    23    78    76   ar
    24    93    92    2
    25    29    27   am
    26    80    79   ar
    27    87    89   ar
    28    87    86    1
    29     5     6    1
    30    92    91    1
    31    76    75   ar
    32    91    90    1
    33    70    71    1
    34    79    77   ar
    35    71    72    1
    36    71    74    1
    37   110   109    2
    38     6     7    1
    39     6     8    1
    40    75    77   ar
    41    75    74    1
    42    73    72    2
    43    85    84    2
    44    86    83    1
    45    22    23    1
    46    27    26    1
    47    27    28    2
    48    84    83    1
    49    36    34    1
    50   109   108    1
    51    34    35    1
    52    34    31    1
    53    26    23    1
    54    83    82    1
    55    30    31    1
    56    30    24   am
    57    23    24    1
    58    31    32    1
    59    68    67    1
    60   108   107    1
    61   108   111    1
    62    24    25    2
    63   112   111    1
    64    32    33    2
    65   111   113    1
    66    47    45    1
    67    67    69    1
    68    67    66    2
    69    46    45    1
    70    58    56    1
    71    45    44    2
    72    57    56    1
    73    66    65    1
    74    56    55    2
    75   105   104   ar
    76    44    43    1
    77    65    64    1
    78   104   106   ar
    79   104   103    1
    80    43    42    1
    81    55    54    1
    82   100   101    2
    83   100    99    1
    84   103   102    1
    85   102    99    1
    86    42    41    1
    87    64    63    1
    88    37    38    1
    89    54    53    1
    90    41    38    1
    91    99    98    1
    92    53    52    1
    93    38    39    1
    94    63    60    1
    95    52    49    1
    96    39    40    2
    97    60    61    1
    98    60    59    1
    99    61    62    2
   100    49    50    1
   101    49    48    1
   102    51    50    2
