@<TRIPOS>MOLECULE
tmp/1cweA00.pdb
 155 151 0 0 0
SMALL
GASTEIGER

@<TRIPOS>ATOM
      1  N         14.4750   39.6410   15.7800 N.3     9  SER9       -0.1202
      2  CA        14.6290   38.1940   15.7590 C.3     9  SER9        0.2020
      3  C         13.5470   37.5220   16.6290 C.2     9  SER9        0.2618
      4  O         12.8950   38.1840   17.4610 O.2     9  SER9       -0.2717
      5  CB        16.0270   37.7970   16.2380 C.3     9  SER9        0.2103
      6  OG        16.2010   38.1430   17.6070 O.3     9  SER9       -0.2182
      7  N         13.4800   36.1950   16.5390 N.am   10  ARG10      -0.1979
      8  CA        12.5100   35.4330   17.3000 C.3    10  ARG10       0.1597
      9  C         12.5810   35.7730   18.7740 C.2    10  ARG10       0.2287
     10  O         11.6630   36.4040   19.3200 O.2    10  ARG10      -0.2864
     11  CB        12.7180   33.9320   17.1020 C.3    10  ARG10       0.0334
     12  CG        11.9600   33.0640   18.1110 C.3    10  ARG10       0.0492
     13  CD        12.0760   31.5880   17.8200 C.3    10  ARG10       0.2205
     14  NE        11.5470   31.3050   16.5000 N.pl3  10  ARG10      -0.0865
     15  CZ        10.6910   30.3360   16.2010 C.cat  10  ARG10       0.5346
     16  NH1       10.2450   29.5100   17.1420 N.pl3  10  ARG10       0.1354
     17  NH2       10.2580   30.2200   14.9540 N.pl3  10  ARG10       0.1354
     18  N          7.7000   40.6860   11.7840 N.3    30  ARG30      -0.1245
     19  CA         9.0650   41.0750   11.8580 C.3    30  ARG30       0.1563
     20  C          9.8070   40.6100   10.6260 C.2    30  ARG30       0.2260
     21  O          9.5860   39.4830   10.1360 O.2    30  ARG30      -0.2867
     22  CB         9.7140   40.4610   13.1130 C.3    30  ARG30       0.0307
     23  CG         9.5750   38.9380   13.1650 C.3    30  ARG30       0.0489
     24  CD        10.1390   38.3580   14.4650 C.3    30  ARG30       0.2205
     25  NE         9.6390   37.0150   14.7080 N.pl3  30  ARG30      -0.0865
     26  CZ        10.2560   35.8880   14.3770 C.cat  30  ARG30       0.5346
     27  NH1       11.4480   35.9210   13.7970 N.pl3  30  ARG30       0.1354
     28  NH2        9.6180   34.7150   14.4950 N.pl3  30  ARG30       0.1354
     29  N          7.8570   37.0900    9.4300 N.3    40  SER40      -0.1217
     30  CA         7.3160   36.1570   10.4030 C.3    40  SER40       0.1889
     31  C          6.3130   36.9040   11.2390 C.2    40  SER40       0.2288
     32  O          6.4520   38.1140   11.4550 O.2    40  SER40      -0.2866
     33  CB         8.4150   35.6200   11.3170 C.3    40  SER40       0.2089
     34  OG         9.2040   34.6780   10.6250 O.3    40  SER40      -0.2183
     35  N          3.5020   32.3490   19.6130 N.3    55  LYS55      -0.1231
     36  CA         3.5300   31.4010   18.5000 C.3    55  LYS55       0.1693
     37  C          4.0800   32.0790   17.2570 C.2    55  LYS55       0.2592
     38  O          3.9330   33.2980   17.0780 O.2    55  LYS55      -0.2718
     39  CB         2.1320   30.8390   18.2750 C.3    55  LYS55       0.0285
     40  CG         1.7550   29.8510   19.3670 C.3    55  LYS55       0.0035
     41  CD         0.3120   29.9920   19.7630 C.3    55  LYS55       0.0206
     42  CE        -0.1890   28.7090   20.4960 C.3    55  LYS55       0.1093
     43  NZ        -1.5690   28.8450   21.1180 N.3    55  LYS55      -0.1314
     44  N          4.8540   31.3270   16.4870 N.am   56  HIS56      -0.1962
     45  CA         5.4710   31.8700   15.2870 C.3    56  HIS56       0.1787
     46  C          4.9610   31.2830   14.0470 C.2    56  HIS56       0.2620
     47  O          5.1680   30.1110   13.8020 O.2    56  HIS56      -0.2715
     48  CB         6.9890   31.6990   15.3420 C.3    56  HIS56       0.0785
     49  CG         7.6000   32.3530   16.5350 C.ar   56  HIS56       0.0821
     50  ND1        7.6300   33.7210   16.6950 N.ar   56  HIS56      -0.2267
     51  CD2        8.0620   31.8290   17.6910 C.ar   56  HIS56       0.1154
     52  CE1        8.0710   34.0130   17.9030 C.ar   56  HIS56       0.1986
     53  NE2        8.3390   32.8810   18.5280 N.ar   56  HIS56      -0.2212
     54  N          4.5090   32.1600   13.1710 N.am   57  TYR57      -0.1960
     55  CA         4.0060   31.7250   11.8850 C.3    57  TYR57       0.1771
     56  C          4.8970   32.2980   10.7800 C.2    57  TYR57       0.2619
     57  O          5.2750   33.4790   10.8120 O.2    57  TYR57      -0.2715
     58  CB         2.5900   32.2380   11.7380 C.3    57  TYR57       0.0574
     59  CG         1.6300   31.6540   12.7360 C.ar   57  TYR57      -0.0198
     60  CD1        1.0520   30.4110   12.5060 C.ar   57  TYR57      -0.0009
     61  CD2        1.2860   32.3440   13.8990 C.ar   57  TYR57      -0.0009
     62  CE1        0.1650   29.8720   13.4050 C.ar   57  TYR57       0.0417
     63  CE2        0.3960   31.8050   14.8070 C.ar   57  TYR57       0.0417
     64  CZ        -0.1510   30.5670   14.5470 C.ar   57  TYR57       0.1957
     65  OH        -0.9800   29.9700   15.4370 O.3    57  TYR57      -0.2866
     66  N          5.2580   31.4500    9.8370 N.am   58  LYS58      -0.1977
     67  CA         6.0940   31.8330    8.7040 C.3    58  LYS58       0.1596
     68  C          5.2630   32.4760    7.5780 C.2    58  LYS58       0.2287
     69  O          4.3000   31.8730    7.1310 O.2    58  LYS58      -0.2864
     70  CB         6.8830   30.6380    8.1700 C.3    58  LYS58       0.0298
     71  CG         8.0150   31.0310    7.2440 C.3    58  LYS58       0.0038
     72  CD         8.8220   32.2030    7.8260 C.3    58  LYS58       0.0206
     73  CE         9.8880   32.7420    6.8510 C.3    58  LYS58       0.1093
     74  NZ         9.2890   33.3310    5.6190 N.3    58  LYS58      -0.1314
     75  N          4.9280   33.3750    3.9060 N.3    60  ARG60      -0.1245
     76  CA         5.5890   32.9880    2.6480 C.3    60  ARG60       0.1563
     77  C          5.3300   34.0080    1.5970 C.2    60  ARG60       0.2260
     78  O          4.2500   34.5890    1.5670 O.2    60  ARG60      -0.2867
     79  CB         5.0720   31.6980    2.0620 C.3    60  ARG60       0.0307
     80  CG         4.7790   30.6420    3.0220 C.3    60  ARG60       0.0489
     81  CD         5.8870   30.4420    3.9220 C.3    60  ARG60       0.2205
     82  NE         5.4710   29.4350    4.8550 N.pl3  60  ARG60      -0.0865
     83  CZ         5.4660   28.1440    4.5720 C.cat  60  ARG60       0.5346
     84  NH1        5.8640   27.7210    3.3770 N.pl3  60  ARG60       0.1354
     85  NH2        5.0680   27.2790    5.4990 N.pl3  60  ARG60       0.1354
     86  N          0.0850   32.8370    4.8700 N.3    69  ILE69      -0.1231
     87  CA         0.5000   31.9660    5.9780 C.3    69  ILE69       0.1692
     88  C         -0.0750   30.5840    5.6700 C.2    69  ILE69       0.2593
     89  O          0.5700   29.5560    5.8080 O.2    69  ILE69      -0.2718
     90  CB         0.0010   32.4940    7.3110 C.3    69  ILE69       0.0266
     91  CG1        0.7990   33.7420    7.6980 C.3    69  ILE69       0.0019
     92  CG2        0.2360   31.4520    8.3700 C.3    69  ILE69       0.0020
     93  CD1        0.2360   34.4980    8.8610 C.3    69  ILE69       0.0001
     94  N         -1.3010   30.5920    5.1790 N.am   70  SER70      -0.1939
     95  CA        -1.9890   29.3840    4.7420 C.3    70  SER70       0.2040
     96  C         -2.2320   29.5230    3.2180 C.2    70  SER70       0.2485
     97  O         -2.6350   30.5910    2.7630 O.2    70  SER70      -0.2729
     98  CB        -3.3570   29.2960    5.4560 C.3    70  SER70       0.2129
     99  OG        -4.2380   28.4110    4.7670 O.3    70  SER70      -0.2179
    100  N         -1.9950   28.4740    2.4180 N.am   71  PRO71      -0.2715
    101  CA        -2.2360   28.5760    0.9640 C.3    71  PRO71       0.1536
    102  C         -3.7030   28.7460    0.5920 C.2    71  PRO71       0.2598
    103  O         -4.0280   28.8460   -0.5900 O.2    71  PRO71      -0.2715
    104  CB        -1.7150   27.2560    0.4040 C.3    71  PRO71       0.0310
    105  CG        -1.7940   26.2950    1.5770 C.3    71  PRO71       0.0237
    106  CD        -1.4100   27.1580    2.7740 C.3    71  PRO71       0.0939
    107  N         -4.5820   28.7640    1.5980 N.am   72  ARG72      -0.1978
    108  CA        -6.0090   28.8950    1.3900 C.3    72  ARG72       0.1597
    109  C         -6.3690   30.3330    1.1850 C.2    72  ARG72       0.2287
    110  O         -7.4850   30.6430    0.8080 O.2    72  ARG72      -0.2864
    111  CB        -6.8060   28.3610    2.5920 C.3    72  ARG72       0.0334
    112  CG        -7.1550   26.8570    2.5970 C.3    72  ARG72       0.0492
    113  CD        -7.4940   26.3740    4.0260 C.3    72  ARG72       0.2205
    114  NE        -8.1700   27.4380    4.7550 N.pl3  72  ARG72      -0.0865
    115  CZ        -7.8420   27.8720    5.9620 C.cat  72  ARG72       0.5346
    116  NH1       -6.8520   27.3470    6.6400 N.pl3  72  ARG72       0.1354
    117  NH2       -8.4570   28.9110    6.4540 N.pl3  72  ARG72       0.1354
    118  N         -6.5990   38.4200    9.5270 N.3    85  TYR85      -0.1241
    119  CA        -6.4850   37.7380   10.7910 C.3    85  TYR85       0.1605
    120  C         -6.9500   38.5100   12.0410 C.2    85  TYR85       0.2264
    121  O         -7.0480   37.9480   13.1200 O.2    85  TYR85      -0.2867
    122  CB        -5.0770   37.2330   10.9100 C.3    85  TYR85       0.0534
    123  CG        -4.8160   36.1660    9.9050 C.ar   85  TYR85      -0.0201
    124  CD1       -5.4130   34.9070   10.0380 C.ar   85  TYR85      -0.0009
    125  CD2       -3.9430   36.3820    8.8350 C.ar   85  TYR85      -0.0009
    126  CE1       -5.1280   33.8730    9.1270 C.ar   85  TYR85       0.0417
    127  CE2       -3.6600   35.3590    7.9210 C.ar   85  TYR85       0.0417
    128  CZ        -4.2470   34.1240    8.0680 C.ar   85  TYR85       0.1957
    129  OH        -4.0030   33.1350    7.1460 O.3    85  TYR85      -0.2866
    130  N         -9.1490   32.1620   11.5150 N.3    90  ASP90      -0.1225
    131  CA        -8.9740   31.3940   10.2920 C.3    90  ASP90       0.1805
    132  C         -7.7600   30.4620   10.2500 C.2    90  ASP90       0.2598
    133  O         -7.0470   30.4040    9.2670 O.2    90  ASP90      -0.2718
    134  CB        -8.9820   32.3750    9.0940 C.3    90  ASP90       0.1424
    135  CG        -9.1290   31.6760    7.7530 C.2    90  ASP90       0.3668
    136  OD1       -9.7410   30.5930    7.7150 O.co2  90  ASP90      -0.2456
    137  OD2       -8.6310   32.2070    6.7330 O.co2  90  ASP90      -0.2456
    138  N         -7.6150   29.6160   11.2450 N.am   91  GLY91      -0.1942
    139  CA        -6.5000   28.6980   11.2290 C.3    91  GLY91       0.2014
    140  C         -5.4920   29.0410   12.2990 C.2    91  GLY91       0.2639
    141  O         -4.8330   28.1480   12.8400 O.2    91  GLY91      -0.2714
    142  N         -5.3270   30.3340   12.5570 N.am   92  LEU92      -0.1963
    143  CA        -4.3990   30.8260   13.5710 C.3    92  LEU92       0.1728
    144  C         -4.8490   30.3570   14.9850 C.2    92  LEU92       0.2616
    145  O         -6.0460   30.1840   15.2410 O.2    92  LEU92      -0.2715
    146  CB        -4.3790   32.3640   13.5310 C.3    92  LEU92       0.0311
    147  CG        -3.0610   33.1320   13.4040 C.3    92  LEU92       0.0022
    148  CD1       -2.2640   32.6640   12.1850 C.3    92  LEU92       0.0001
    149  CD2       -3.3580   34.6120   13.3280 C.3    92  LEU92       0.0001
    150  N         -3.9150   30.3610   15.9310 N.am   93  CYS93      -0.1968
    151  CA        -4.1800   29.9690   17.3040 C.3    93  CYS93       0.1712
    152  C         -5.1830   30.9270   17.9540 C.2    93  CYS93       0.2296
    153  O         -5.8880   30.5770   18.9000 O.2    93  CYS93      -0.2864
    154  CB        -2.8600   29.9530   18.0820 C.3    93  CYS93       0.0983
    155  SG        -1.9980   31.5640   18.1380 S.3    93  CYS93      -0.0798
@<TRIPOS>BOND
     1   103   102    2
     2   104   101    1
     3   104   105    1
     4   102   101    1
     5   102   107   am
     6   110   109    2
     7   101   100    1
     8   109   108    1
     9   108   107    1
    10   108   111    1
    11    78    77    2
    12   105   106    1
    13    77    76    1
    14    79    76    1
    15    79    80    1
    16   100   106    1
    17   100    96   am
    18   111   112    1
    19   112   113    1
    20    76    75    1
    21    97    96    2
    22    80    81    1
    23    96    95    1
    24    84    83    1
    25    81    82    1
    26   113   114    1
    27    83    82    2
    28    83    85    1
    29    95    94    1
    30    95    98    1
    31   114   115    2
    32    99    98    1
    33    86    87    1
    34    94    88   am
    35    74    73    1
    36    88    89    2
    37    88    87    1
    38   115   117    1
    39   115   116    1
    40    87    90    1
    41   137   135   ar
    42    73    72    1
    43    69    68    2
    44   129   128    1
    45    71    72    1
    46    71    70    1
    47    90    91    1
    48    90    92    1
    49    68    67    1
    50    91    93    1
    51   136   135   ar
    52   135   134    1
    53   127   128   ar
    54   127   125   ar
    55   128   126   ar
    56    70    67    1
    57    67    66    1
    58   125   123   ar
    59   134   131    1
    60   126   124   ar
    61   133   132    2
    62    29    30    1
    63   118   119    1
    64    66    56   am
    65   123   124   ar
    66   123   122    1
    67    21    20    2
    68   132   131    1
    69   132   138   am
    70   131   130    1
    71    30    31    1
    72    30    33    1
    73    34    33    1
    74    20    19    1
    75    56    57    2
    76    56    55    1
    77   119   122    1
    78   119   120    1
    79   139   138    1
    80   139   140    1
    81    31    32    2
    82    58    55    1
    83    58    59    1
    84    18    19    1
    85    19    22    1
    86    55    54    1
    87   120   121    2
    88   148   147    1
    89   140   142   am
    90   140   141    2
    91    60    59   ar
    92    60    62   ar
    93   142   143    1
    94    59    61   ar
    95    22    23    1
    96    23    24    1
    97    54    46   am
    98   149   147    1
    99   147   146    1
   100    62    64   ar
   101   146   143    1
   102   143   144    1
   103    27    26    1
   104    47    46    2
   105    61    63   ar
   106    46    45    1
   107    26    28    1
   108    26    25    2
   109    24    25    1
   110    64    63   ar
   111    64    65    1
   112    17    15    1
   113   144   145    2
   114   144   150   am
   115    45    48    1
   116    45    44    1
   117    48    49    1
   118     2     1    1
   119     2     5    1
   120     2     3    1
   121   150   151    1
   122    15    14    2
   123    15    16    1
   124     5     6    1
   125    44    37   am
   126    14    13    1
   127    49    50   ar
   128    49    51   ar
   129     7     3   am
   130     7     8    1
   131     3     4    2
   132    50    52   ar
   133    38    37    2
   134    11     8    1
   135    11    12    1
   136    37    36    1
   137     8     9    1
   138   151   152    1
   139   151   154    1
   140    51    53   ar
   141    13    12    1
   142    52    53   ar
   143   152   153    2
   144   154   155    1
   145    39    36    1
   146    39    40    1
   147    36    35    1
   148     9    10    2
   149    40    41    1
   150    41    42    1
   151    42    43    1
