@<TRIPOS>MOLECULE
tmp/1cwoA00.pdb
 184 176 0 0 0
SMALL
GASTEIGER

@<TRIPOS>ATOM
      1  N          6.6330   67.5410   61.6870 N.3    55  ARG55      -0.1245
      2  CA         5.3110   67.5220   61.0430 C.3    55  ARG55       0.1563
      3  C          4.2600   66.8350   61.9170 C.2    55  ARG55       0.2260
      4  O          4.3280   65.6250   62.1540 O.2    55  ARG55      -0.2867
      5  CB         5.4360   66.8140   59.6930 C.3    55  ARG55       0.0307
      6  CG         4.2430   66.9280   58.7770 C.3    55  ARG55       0.0489
      7  CD         4.6390   66.5310   57.3550 C.3    55  ARG55       0.2205
      8  NE         3.4860   66.3760   56.4690 N.pl3  55  ARG55      -0.0865
      9  CZ         2.9430   65.1990   56.1510 C.cat  55  ARG55       0.5346
     10  NH1        3.4460   64.0760   56.6470 N.pl3  55  ARG55       0.1354
     11  NH2        1.8870   65.1390   55.3420 N.pl3  55  ARG55       0.1354
     12  N          0.0500   66.5560   62.3540 N.3    57  ILE57      -0.1245
     13  CA        -1.2760   66.8170   61.8080 C.3    57  ILE57       0.1561
     14  C         -2.3150   66.2110   62.7570 C.2    57  ILE57       0.2260
     15  O         -2.3870   64.9870   62.9220 O.2    57  ILE57      -0.2867
     16  CB        -1.4130   66.2420   60.3690 C.3    57  ILE57       0.0252
     17  CG1       -0.4350   66.9680   59.4340 C.3    57  ILE57       0.0019
     18  CG2       -2.8290   66.4520   59.8320 C.3    57  ILE57       0.0019
     19  CD1       -0.4020   66.4230   57.9890 C.3    57  ILE57       0.0001
     20  N         -5.3770   64.5330   64.4970 N.3    59  GLY59      -0.1210
     21  CA        -6.2600   63.4940   64.0300 C.3    59  GLY59       0.1956
     22  C         -5.6310   62.5300   63.0400 C.2    59  GLY59       0.2612
     23  O         -6.3100   61.6300   62.5440 O.2    59  GLY59      -0.2717
     24  N         -4.3440   62.7070   62.7390 N.am   60  PHE60      -0.1962
     25  CA        -3.6510   61.8370   61.7920 C.3    60  PHE60       0.1771
     26  C         -2.3830   61.2230   62.4170 C.2    60  PHE60       0.2619
     27  O         -2.3840   60.0500   62.8110 O.2    60  PHE60      -0.2715
     28  CB        -3.3580   62.6180   60.5070 C.3    60  PHE60       0.0574
     29  CG        -2.5600   61.8550   59.4710 C.ar   60  PHE60      -0.0200
     30  CD1       -2.6010   60.4540   59.3990 C.ar   60  PHE60      -0.0042
     31  CD2       -1.7930   62.5550   58.5380 C.ar   60  PHE60      -0.0042
     32  CE1       -1.8880   59.7640   58.4180 C.ar   60  PHE60      -0.0003
     33  CE2       -1.0690   61.8710   57.5450 C.ar   60  PHE60      -0.0003
     34  CZ        -1.1220   60.4770   57.4870 C.ar   60  PHE60      -0.0000
     35  N         -1.3200   62.0090   62.5460 N.am   61  MET61      -0.1977
     36  CA        -0.0760   61.4710   63.1190 C.3    61  MET61       0.1605
     37  C          0.9430   62.5330   63.4890 C.2    61  MET61       0.2287
     38  O          0.7400   63.7130   63.2060 O.2    61  MET61      -0.2864
     39  CB         0.5560   60.4870   62.1170 C.3    61  MET61       0.0413
     40  CG         0.8410   61.0770   60.7220 C.3    61  MET61       0.0598
     41  SD         2.4310   61.9780   60.5930 S.3    61  MET61      -0.1393
     42  CE         1.8710   63.6020   60.0500 C.3    61  MET61       0.0692
     43  N          5.0340   63.1440   63.0270 N.3    63  GLN63      -0.1245
     44  CA         6.1930   62.6480   62.2750 C.3    63  GLN63       0.1566
     45  C          7.5190   63.2350   62.7670 C.2    63  GLN63       0.2260
     46  O          7.6190   64.4380   63.0110 O.2    63  GLN63      -0.2867
     47  CB         6.0150   62.9790   60.7940 C.3    63  GLN63       0.0367
     48  CG         7.1500   62.5070   59.8720 C.3    63  GLN63       0.0905
     49  CD         6.8870   62.8590   58.4160 C.2    63  GLN63       0.2608
     50  OE1        5.8270   63.4160   58.0850 O.2    63  GLN63      -0.2717
     51  NE2        7.8490   62.5470   57.5310 N.am   63  GLN63      -0.0878
     52  N         14.1210   68.7430   58.6780 N.3    71  ASN71      -0.1225
     53  CA        12.9790   69.2630   57.9300 C.3    71  ASN71       0.1785
     54  C         12.1750   68.2400   57.1150 C.2    71  ASN71       0.2598
     55  O         11.2440   68.6070   56.4010 O.2    71  ASN71      -0.2718
     56  CB        13.4380   70.4090   57.0200 C.3    71  ASN71       0.1169
     57  CG        14.4210   69.9590   55.9550 C.2    71  ASN71       0.2627
     58  OD1       14.6170   68.7650   55.7360 O.2    71  ASN71      -0.2716
     59  ND2       15.0350   70.9180   55.2760 N.am   71  ASN71      -0.0877
     60  N         12.5240   66.9630   57.2170 N.am   72  GLY72      -0.1942
     61  CA        11.8030   65.9510   56.4720 C.3    72  GLY72       0.2014
     62  C         12.5270   65.4330   55.2470 C.2    72  GLY72       0.2640
     63  O         12.0960   64.4520   54.6480 O.2    72  GLY72      -0.2714
     64  N         13.6280   66.0690   54.8640 N.am   73  THR73      -0.1936
     65  CA        14.3670   65.6000   53.6960 C.3    73  THR73       0.2028
     66  C         15.5830   64.7570   54.0950 C.2    73  THR73       0.2642
     67  O         16.2330   64.1610   53.2360 O.2    73  THR73      -0.2714
     68  CB        14.8750   66.7670   52.8210 C.3    73  THR73       0.1808
     69  OG1       15.7750   67.5710   53.5890 O.3    73  THR73      -0.2208
     70  CG2       13.7210   67.6300   52.3220 C.3    73  THR73       0.0379
     71  N         15.8930   64.7080   55.3890 N.am   74  GLY74      -0.1954
     72  CA        17.0650   63.9690   55.8270 C.3    74  GLY74       0.1869
     73  C         16.8930   62.7160   56.6650 C.2    74  GLY74       0.2309
     74  O         15.8430   62.0600   56.6540 O.2    74  GLY74      -0.2863
     75  N         19.6410   54.0100   53.1320 N.3    82  LYS82      -0.1245
     76  CA        18.2650   53.4940   53.1710 C.3    82  LYS82       0.1561
     77  C         18.2170   51.9720   53.1280 C.2    82  LYS82       0.2260
     78  O         19.1940   51.3350   52.7440 O.2    82  LYS82      -0.2867
     79  CB        17.4780   54.0160   51.9710 C.3    82  LYS82       0.0271
     80  CG        17.2750   55.5120   51.9510 C.3    82  LYS82       0.0035
     81  CD        16.7800   55.9610   50.5910 C.3    82  LYS82       0.0206
     82  CE        16.6680   57.4830   50.5140 C.3    82  LYS82       0.1093
     83  NZ        16.2630   57.9360   49.1520 N.3    82  LYS82      -0.1314
     84  N          8.2120   56.2520   57.8960 N.3   101  ALA101     -0.1231
     85  CA         7.9290   57.1950   56.8320 C.3   101  ALA101      0.1694
     86  C          8.8540   56.7580   55.6870 C.2   101  ALA101      0.2592
     87  O          9.8350   56.0500   55.9270 O.2   101  ALA101     -0.2718
     88  CB         8.2880   58.6030   57.2860 C.3   101  ALA101      0.0304
     89  N          8.5320   57.1110   54.4460 N.am  102  ASN102     -0.1960
     90  CA         9.3980   56.7520   53.3350 C.3   102  ASN102      0.1819
     91  C          9.2080   57.6550   52.1220 C.2   102  ASN102      0.2621
     92  O          8.5210   58.6630   52.2060 O.2   102  ASN102     -0.2715
     93  CB         9.2700   55.2630   52.9700 C.3   102  ASN102      0.1195
     94  CG         7.8730   54.8720   52.4920 C.2   102  ASN102      0.2630
     95  OD1        7.3500   53.8280   52.8870 O.2   102  ASN102     -0.2716
     96  ND2        7.3020   55.6530   51.5940 N.am  102  ASN102     -0.0877
     97  N          9.8780   57.3270   51.0180 N.am  103  ALA103     -0.1963
     98  CA         9.7600   58.0920   49.7800 C.3   103  ALA103      0.1728
     99  C          9.4040   57.1210   48.6440 C.2   103  ALA103      0.2616
    100  O          9.8040   57.3150   47.4880 O.2   103  ALA103     -0.2715
    101  CB        11.0690   58.8060   49.4760 C.3   103  ALA103      0.0334
    102  N          8.6320   56.0890   48.9730 N.am  104  GLY104     -0.1955
    103  CA         8.2570   55.0970   47.9810 C.3   104  GLY104      0.1869
    104  C          8.7760   53.7470   48.4040 C.2   104  GLY104      0.2309
    105  O          9.4030   53.6450   49.4660 O.2   104  GLY104     -0.2863
    106  N         12.6630   52.5060   50.8070 N.3   107  THR107     -0.1218
    107  CA        13.4340   53.7270   51.0690 C.3   107  THR107      0.1862
    108  C         13.3530   54.1540   52.5310 C.2   107  THR107      0.2287
    109  O         13.2030   55.3340   52.8350 O.2   107  THR107     -0.2866
    110  CB        12.9880   54.9190   50.1910 C.3   107  THR107      0.1770
    111  OG1       11.5960   55.1520   50.3940 O.3   107  THR107     -0.2211
    112  CG2       13.2490   54.6600   48.7060 C.3   107  THR107      0.0375
    113  N         13.1960   58.3520   59.5560 N.3   111  GLN111     -0.1245
    114  CA        11.9250   58.9970   59.8380 C.3   111  GLN111      0.1566
    115  C         10.7990   58.0010   60.1240 C.2   111  GLN111      0.2260
    116  O         10.6870   56.9420   59.4940 O.2   111  GLN111     -0.2867
    117  CB        11.5550   59.9780   58.7360 C.3   111  GLN111      0.0367
    118  CG        12.4520   61.2080   58.7060 C.3   111  GLN111      0.0905
    119  CD        11.9500   62.2480   57.7280 C.2   111  GLN111      0.2608
    120  OE1       10.8580   62.7890   57.8960 O.2   111  GLN111     -0.2717
    121  NE2       12.7240   62.5040   56.6790 N.am  111  GLN111     -0.0878
    122  N          6.5590   57.6970   62.1630 N.3   113  PHE113     -0.1241
    123  CA         5.3720   58.4480   62.5670 C.3   113  PHE113      0.1605
    124  C          4.5730   57.6450   63.5690 C.2   113  PHE113      0.2264
    125  O          4.6580   56.4120   63.5990 O.2   113  PHE113     -0.2867
    126  CB         4.5230   58.9130   61.3670 C.3   113  PHE113      0.0534
    127  CG         3.9320   57.8030   60.5430 C.ar  113  PHE113     -0.0203
    128  CD1        4.6430   57.2490   59.4710 C.ar  113  PHE113     -0.0042
    129  CD2        2.6170   57.3770   60.7670 C.ar  113  PHE113     -0.0042
    130  CE1        4.0470   56.2900   58.6180 C.ar  113  PHE113     -0.0003
    131  CE2        2.0140   56.4290   59.9320 C.ar  113  PHE113     -0.0003
    132  CZ         2.7250   55.8840   58.8550 C.ar  113  PHE113     -0.0000
    133  N         -5.2930   53.4080   54.9410 N.3   121  TRP121     -0.1227
    134  CA        -4.8740   53.6680   53.5660 C.3   121  TRP121      0.1737
    135  C         -3.3480   53.5690   53.4060 C.2   121  TRP121      0.2595
    136  O         -2.8250   53.5690   52.2760 O.2   121  TRP121     -0.2718
    137  CB        -5.4040   55.0200   53.0650 C.3   121  TRP121      0.0564
    138  CG        -4.9430   56.2070   53.8510 C.ar  121  TRP121      0.0003
    139  CD1       -3.8910   57.0200   53.5540 C.ar  121  TRP121      0.0946
    140  CD2       -5.5240   56.7310   55.0570 C.ar  121  TRP121      0.0152
    141  NE1       -3.7800   58.0130   54.4900 N.ar  121  TRP121     -0.2442
    142  CE2       -4.7720   57.8640   55.4250 C.ar  121  TRP121      0.0810
    143  CE3       -6.6120   56.3570   55.8600 C.ar  121  TRP121      0.0012
    144  CZ2       -5.0630   58.6240   56.5560 C.ar  121  TRP121      0.0191
    145  CZ3       -6.9000   57.1140   56.9830 C.ar  121  TRP121      0.0001
    146  CH2       -6.1290   58.2340   57.3180 C.ar  121  TRP121      0.0015
    147  N         -2.6450   53.4620   54.5370 N.am  122  LEU122     -0.1980
    148  CA        -1.1880   53.3440   54.5510 C.3   122  LEU122      0.1596
    149  C         -0.7470   51.8900   54.6520 C.2   122  LEU122      0.2287
    150  O          0.4500   51.6060   54.5980 O.2   122  LEU122     -0.2864
    151  CB        -0.5780   54.1470   55.7170 C.3   122  LEU122      0.0297
    152  CG        -0.9150   55.6350   55.7560 C.3   122  LEU122      0.0022
    153  CD1       -0.2070   56.3120   56.8970 C.3   122  LEU122      0.0001
    154  CD2       -0.5420   56.2810   54.4300 C.3   122  LEU122      0.0001
    155  N          2.0910   49.9610   52.4410 N.3   125  LYS125     -0.1231
    156  CA         2.9590   51.0070   51.8810 C.3   125  LYS125      0.1693
    157  C          4.0020   51.4540   52.8930 C.2   125  LYS125      0.2592
    158  O          5.0900   51.8790   52.5130 O.2   125  LYS125     -0.2718
    159  CB         2.1440   52.2370   51.4650 C.3   125  LYS125      0.0285
    160  CG         1.2930   52.0370   50.2180 C.3   125  LYS125      0.0035
    161  CD         0.4580   53.2810   49.9480 C.3   125  LYS125      0.0206
    162  CE        -0.3410   53.1510   48.6590 C.3   125  LYS125      0.1093
    163  NZ        -1.0690   54.4040   48.3160 N.3   125  LYS125     -0.1314
    164  N          3.6420   51.3950   54.1760 N.am  126  HIS126     -0.1976
    165  CA         4.5280   51.8040   55.2590 C.3   126  HIS126      0.1656
    166  C          4.6870   50.6730   56.2530 C.2   126  HIS126      0.2291
    167  O          3.6930   50.0740   56.6690 O.2   126  HIS126     -0.2864
    168  CB         3.9810   53.0680   55.9430 C.3   126  HIS126      0.0771
    169  CG         3.9630   54.2660   55.0340 C.ar  126  HIS126      0.0820
    170  ND1        5.0020   55.1660   54.9690 N.ar  126  HIS126     -0.2267
    171  CD2        3.0850   54.6470   54.0740 C.ar  126  HIS126      0.1154
    172  CE1        4.7750   56.0370   54.0060 C.ar  126  HIS126      0.1986
    173  NE2        3.6180   55.7420   53.4500 N.ar  126  HIS126     -0.2212
    174  N         -3.1240   71.9620   60.3650 N.3   148  ARG148     -0.1245
    175  CA        -3.6600   71.2620   59.2110 C.3   148  ARG148      0.1563
    176  C         -2.6180   70.8520   58.1750 C.2   148  ARG148      0.2260
    177  O         -2.7330   69.7780   57.5870 O.2   148  ARG148     -0.2867
    178  CB        -4.7470   72.1160   58.5710 C.3   148  ARG148      0.0307
    179  CG        -5.8560   72.4580   59.5510 C.3   148  ARG148      0.0489
    180  CD        -7.0330   71.5490   59.3660 C.3   148  ARG148      0.2205
    181  NE        -7.8800   72.0590   58.2990 N.pl3 148  ARG148     -0.0865
    182  CZ        -8.0340   71.4840   57.1120 C.cat 148  ARG148      0.5346
    183  NH1       -7.3930   70.3570   56.8210 N.pl3 148  ARG148      0.1354
    184  NH2       -8.8350   72.0430   56.2180 N.pl3 148  ARG148      0.1354
@<TRIPOS>BOND
     1   100    99    2
     2   103   104    1
     3   103   102    1
     4   163   162    1
     5   104   105    2
     6    99   102   am
     7    99    98    1
     8   162   161    1
     9   112   110    1
    10    83    82    1
    11   101    98    1
    12    98    97    1
    13   161   160    1
    14   110   111    1
    15   110   107    1
    16   160   159    1
    17    82    81    1
    18    81    80    1
    19   106   107    1
    20    97    91   am
    21   107   108    1
    22   159   156    1
    23    96    94   am
    24   156   155    1
    25   156   157    1
    26    80    79    1
    27    79    76    1
    28    91    92    2
    29    91    90    1
    30   136   135    2
    31    70    68    1
    32    94    95    2
    33    94    93    1
    34   158   157    2
    35   108   109    2
    36    78    77    2
    37    68    69    1
    38    68    65    1
    39   157   164   am
    40    93    90    1
    41   137   134    1
    42   137   138    1
    43    77    76    1
    44    75    76    1
    45    67    66    2
    46    90    89    1
    47   135   134    1
    48   135   147   am
    49   173   172   ar
    50   173   171   ar
    51   139   138   ar
    52   139   141   ar
    53   134   133    1
    54    65    66    1
    55    65    64    1
    56   138   140   ar
    57   172   170   ar
    58   171   169   ar
    59    66    71   am
    60   164   165    1
    61   154   152    1
    62    89    86   am
    63   141   142   ar
    64   147   148    1
    65   148   149    1
    66   148   151    1
    67   150   149    2
    68    63    62    2
    69    64    62   am
    70   170   169   ar
    71   169   168    1
    72   140   142   ar
    73   140   143   ar
    74    62    61    1
    75   165   168    1
    76   165   166    1
    77    59    57   am
    78    11     9    1
    79    71    72    1
    80   142   144   ar
    81    86    87    2
    82    86    85    1
    83   151   152    1
    84    58    57    2
    85   152   153    1
    86    72    73    1
    87   143   145   ar
    88    57    56    1
    89     9     8    2
    90     9    10    1
    91   184   182    1
    92   166   167    2
    93    55    54    2
    94     8     7    1
    95    61    60    1
    96   144   146   ar
    97    74    73    2
    98   121   119   am
    99   183   182    1
   100    85    88    1
   101    85    84    1
   102   145   146   ar
   103    56    53    1
   104   182   181    2
   105    54    60   am
   106    54    53    1
   107     7     6    1
   108    34    33   ar
   109    34    32   ar
   110    51    49   am
   111    33    31   ar
   112   177   176    2
   113   119   120    2
   114   119   118    1
   115    53    52    1
   116    19    17    1
   117    50    49    2
   118   176   175    1
   119   181   180    1
   120    49    48    1
   121    32    30   ar
   122    31    29   ar
   123   178   175    1
   124   178   179    1
   125   130   132   ar
   126   130   128   ar
   127   118   117    1
   128   117   114    1
   129     6     5    1
   130   132   131   ar
   131   175   174    1
   132   180   179    1
   133    30    29   ar
   134    17    16    1
   135   128   127   ar
   136    29    28    1
   137   116   115    2
   138   113   114    1
   139     5     2    1
   140    18    16    1
   141   114   115    1
   142    48    47    1
   143   131   129   ar
   144    42    41    1
   145    16    13    1
   146    28    25    1
   147   127   129   ar
   148   127   126    1
   149    41    40    1
   150    40    39    1
   151    47    44    1
   152     2     1    1
   153     2     3    1
   154   126   123    1
   155    25    26    1
   156    25    24    1
   157    13    12    1
   158    13    14    1
   159     3     4    2
   160    39    36    1
   161   122   123    1
   162    44    45    1
   163    44    43    1
   164    26    35   am
   165    26    27    2
   166    23    22    2
   167    35    36    1
   168   123   124    1
   169    24    22   am
   170    14    15    2
   171    45    46    2
   172    22    21    1
   173    36    37    1
   174    38    37    2
   175   124   125    2
   176    21    20    1
