@<TRIPOS>MOLECULE
tmp/1cwqB07.pdb
 198 194 0 0 0
SMALL
GASTEIGER

@<TRIPOS>ATOM
      1  N        -14.3270   29.3830  -10.0320 N.3    48  VAL48      -0.1245
      2  CA       -14.7140   30.3790   -9.0470 C.3    48  VAL48       0.1561
      3  C        -15.5160   29.7100   -7.9260 C.2    48  VAL48       0.2260
      4  O        -15.0900   29.7410   -6.7670 O.2    48  VAL48      -0.2867
      5  CB       -15.4810   31.5640   -9.7090 C.3    48  VAL48       0.0252
      6  CG1      -16.2430   32.3770   -8.6580 C.3    48  VAL48       0.0019
      7  CG2      -14.4700   32.4790  -10.4340 C.3    48  VAL48       0.0019
      8  N        -12.7990   37.3020    2.3820 N.3    82  TYR82      -0.1241
      9  CA       -12.0530   38.1860    1.5010 C.3    82  TYR82       0.1605
     10  C        -11.0590   37.3650    0.6770 C.2    82  TYR82       0.2264
     11  O        -10.7820   37.6820   -0.4850 O.2    82  TYR82      -0.2867
     12  CB       -11.3050   39.2250    2.3100 C.3    82  TYR82       0.0534
     13  CG       -12.2310   40.1990    3.0030 C.ar   82  TYR82      -0.0201
     14  CD1      -12.5200   41.4440    2.4330 C.ar   82  TYR82      -0.0009
     15  CD2      -12.8180   39.8750    4.2280 C.ar   82  TYR82      -0.0009
     16  CE1      -13.3750   42.3500    3.0780 C.ar   82  TYR82       0.0417
     17  CE2      -13.6750   40.7610    4.8820 C.ar   82  TYR82       0.0417
     18  CZ       -13.9430   41.9920    4.2980 C.ar   82  TYR82       0.1957
     19  OH       -14.7680   42.8570    4.9420 O.3    82  TYR82      -0.2866
     20  N        -12.8830   36.3500   -2.2460 N.3    85  TRP85      -0.1241
     21  CA       -13.0400   37.4510   -3.1980 C.3    85  TRP85       0.1605
     22  C        -11.7170   37.7500   -3.8800 C.2    85  TRP85       0.2264
     23  O        -11.6590   38.0620   -5.0680 O.2    85  TRP85      -0.2867
     24  CB       -13.5330   38.7350   -2.4960 C.3    85  TRP85       0.0550
     25  CG       -14.9150   38.6050   -1.8620 C.ar   85  TRP85       0.0003
     26  CD1      -15.8750   37.6920   -2.1880 C.ar   85  TRP85       0.0946
     27  CD2      -15.4650   39.3940   -0.7910 C.ar   85  TRP85       0.0152
     28  NE1      -16.9740   37.8510   -1.3880 N.ar   85  TRP85      -0.2442
     29  CE2      -16.7520   38.8860   -0.5210 C.ar   85  TRP85       0.0810
     30  CE3      -14.9940   40.4740   -0.0310 C.ar   85  TRP85       0.0012
     31  CZ2      -17.5790   39.4170    0.4780 C.ar   85  TRP85       0.0191
     32  CZ3      -15.8190   41.0020    0.9630 C.ar   85  TRP85       0.0001
     33  CH2      -17.0960   40.4710    1.2060 C.ar   85  TRP85       0.0015
     34  N        -11.4840   35.0820   -6.6370 N.3    88  THR88      -0.1203
     35  CA       -12.4710   34.9850   -7.7170 C.3    88  THR88       0.1994
     36  C        -12.5330   36.2320   -8.5960 C.2    88  THR88       0.2618
     37  O        -12.4180   36.1270   -9.8200 O.2    88  THR88      -0.2717
     38  CB       -13.8830   34.6920   -7.1810 C.3    88  THR88       0.1784
     39  OG1      -14.3810   35.8500   -6.5020 O.3    88  THR88      -0.2211
     40  CG2      -13.8540   33.5110   -6.2070 C.3    88  THR88       0.0376
     41  N        -12.7170   37.4030   -7.9820 N.am   89  THR89      -0.1952
     42  CA       -12.7670   38.6470   -8.7480 C.3    89  THR89       0.1897
     43  C        -11.8270   38.6560   -9.9530 C.2    89  THR89       0.2313
     44  O        -12.2540   38.9740  -11.0550 O.2    89  THR89      -0.2863
     45  CB       -12.4300   39.8700   -7.8900 C.3    89  THR89       0.1794
     46  OG1      -11.4590   39.5000   -6.9070 O.3    89  THR89      -0.2208
     47  CG2      -13.6810   40.4310   -7.2310 C.3    89  THR89       0.0378
     48  N        -13.4300   36.9020  -12.5820 N.3    92  LEU92      -0.1245
     49  CA       -14.6670   37.4510  -13.1070 C.3    92  LEU92       0.1561
     50  C        -14.3650   38.5280  -14.1290 C.2    92  LEU92       0.2260
     51  O        -14.9700   38.5550  -15.2040 O.2    92  LEU92      -0.2867
     52  CB       -15.5510   37.9860  -11.9840 C.3    92  LEU92       0.0270
     53  CG       -16.3790   36.9080  -11.2540 C.3    92  LEU92       0.0019
     54  CD1      -17.5120   37.5960  -10.5260 C.3    92  LEU92       0.0001
     55  CD2      -16.9670   35.8700  -12.2330 C.3    92  LEU92       0.0001
     56  N         -8.3090   46.7820   -4.5060 N.3   117  MET117     -0.1230
     57  CA        -9.6760   46.7600   -3.9740 C.3   117  MET117      0.1702
     58  C         -9.7890   45.9050   -2.7160 C.2   117  MET117      0.2592
     59  O         -9.7800   46.4220   -1.5890 O.2   117  MET117     -0.2718
     60  CB       -10.6510   46.2530   -5.0400 C.3   117  MET117      0.0401
     61  CG       -12.0960   46.2150   -4.5840 C.3   117  MET117      0.0596
     62  SD       -13.3110   46.1830   -5.9500 S.3   117  MET117     -0.1393
     63  CE       -13.3150   44.4370   -6.3910 C.3   117  MET117      0.0692
     64  N         -9.8880   44.5940   -2.9200 N.am  118  ILE118     -0.1980
     65  CA       -10.0060   43.6360   -1.8220 C.3   118  ILE118      0.1595
     66  C         -8.8190   43.7650   -0.8800 C.2   118  ILE118      0.2287
     67  O         -8.9750   43.7510    0.3450 O.2   118  ILE118     -0.2864
     68  CB       -10.0560   42.2040   -2.3670 C.3   118  ILE118      0.0276
     69  CG1      -11.0950   42.1220   -3.4850 C.3   118  ILE118      0.0022
     70  CG2      -10.3950   41.2270   -1.2620 C.3   118  ILE118      0.0022
     71  CD1      -12.4290   42.7180   -3.1230 C.3   118  ILE118      0.0001
     72  N         -9.1510   46.2900    1.2060 N.3   121  GLY121     -0.1225
     73  CA       -10.4190   45.9900    1.8450 C.3   121  GLY121      0.1811
     74  C        -10.2120   45.1170    3.0650 C.2   121  GLY121      0.2280
     75  O        -10.7560   45.3770    4.1360 O.2   121  GLY121     -0.2866
     76  N        -11.6120   51.7860    3.6050 N.3   137  TRP137     -0.1241
     77  CA       -12.8460   51.5130    2.8850 C.3   137  TRP137      0.1605
     78  C        -12.7730   52.4260    1.6660 C.2   137  TRP137      0.2264
     79  O        -12.9270   51.9880    0.5150 O.2   137  TRP137     -0.2867
     80  CB       -14.0470   51.9030    3.7510 C.3   137  TRP137      0.0550
     81  CG       -15.4020   51.6770    3.1150 C.ar  137  TRP137      0.0003
     82  CD1      -16.0520   50.4860    2.9750 C.ar  137  TRP137      0.0946
     83  CD2      -16.2900   52.6790    2.5950 C.ar  137  TRP137      0.0152
     84  NE1      -17.2940   50.6790    2.4090 N.ar  137  TRP137     -0.2442
     85  CE2      -17.4650   52.0170    2.1650 C.ar  137  TRP137      0.0810
     86  CE3      -16.2110   54.0720    2.4520 C.ar  137  TRP137      0.0012
     87  CZ2      -18.5520   52.7030    1.6030 C.ar  137  TRP137      0.0191
     88  CZ3      -17.2920   54.7570    1.8920 C.ar  137  TRP137      0.0001
     89  CH2      -18.4450   54.0680    1.4770 C.ar  137  TRP137      0.0015
     90  N        -10.6070   51.4470   -1.0380 N.3   140  SER140     -0.1202
     91  CA       -11.1540   50.2370   -1.6100 C.3   140  SER140      0.2020
     92  C        -12.3330   50.5000   -2.5700 C.2   140  SER140      0.2619
     93  O        -12.3410   50.0240   -3.7140 O.2   140  SER140     -0.2717
     94  CB       -11.5600   49.2910   -0.4730 C.3   140  SER140      0.2103
     95  OG       -11.7330   47.9630   -0.9380 O.3   140  SER140     -0.2182
     96  N        -13.3260   51.2500   -2.1020 N.am  141  THR141     -0.1952
     97  CA       -14.4790   51.5600   -2.9240 C.3   141  THR141      0.1897
     98  C        -13.9680   52.3160   -4.1510 C.2   141  THR141      0.2313
     99  O        -14.4020   52.0590   -5.2630 O.2   141  THR141     -0.2863
    100  CB       -15.5330   52.4020   -2.1240 C.3   141  THR141      0.1794
    101  OG1      -16.1120   51.6010   -1.0750 O.3   141  THR141     -0.2208
    102  CG2      -16.6410   52.9060   -3.0360 C.3   141  THR141      0.0378
    103  N        -12.7250   50.2600   -6.9300 N.3   144  MET144     -0.1245
    104  CA       -13.8900   49.6020   -7.5080 C.3   144  MET144      0.1570
    105  C        -14.4220   50.4850   -8.6210 C.2   144  MET144      0.2261
    106  O        -14.6890   50.0180   -9.7340 O.2   144  MET144     -0.2867
    107  CB       -14.9860   49.4090   -6.4640 C.3   144  MET144      0.0387
    108  CG       -16.3460   49.1410   -7.0980 C.3   144  MET144      0.0595
    109  SD       -17.6580   48.7150   -5.9780 S.3   144  MET144     -0.1393
    110  CE       -18.7880   50.1390   -6.2250 C.3   144  MET144      0.0692
    111  N        -23.9870   44.1700   -8.7780 N.3   180  LEU180     -0.1231
    112  CA       -23.3380   43.1730   -7.9220 C.3   180  LEU180      0.1693
    113  C        -22.1640   43.7320   -7.1260 C.2   180  LEU180      0.2592
    114  O        -22.1800   43.7470   -5.8880 O.2   180  LEU180     -0.2718
    115  CB       -22.8570   41.9730   -8.7450 C.3   180  LEU180      0.0284
    116  CG       -23.4900   40.6310   -8.3880 C.3   180  LEU180      0.0019
    117  CD1      -22.6980   39.5040   -9.0740 C.3   180  LEU180      0.0001
    118  CD2      -23.4860   40.4290   -6.8690 C.3   180  LEU180      0.0001
    119  N        -21.1380   44.1670   -7.8490 N.am  181  TRP181     -0.1976
    120  CA       -19.9570   44.7350   -7.2300 C.3   181  TRP181      0.1640
    121  C        -20.3260   45.9040   -6.3210 C.2   181  TRP181      0.2290
    122  O        -19.9460   45.9210   -5.1540 O.2   181  TRP181     -0.2864
    123  CB       -18.9980   45.2080   -8.3090 C.3   181  TRP181      0.0576
    124  CG       -18.3440   44.1010   -9.0530 C.ar  181  TRP181      0.0006
    125  CD1      -18.9440   43.0050   -9.6390 C.ar  181  TRP181      0.0946
    126  CD2      -16.9490   43.9890   -9.3390 C.ar  181  TRP181      0.0152
    127  NE1      -18.0040   42.2310  -10.2660 N.ar  181  TRP181     -0.2442
    128  CE2      -16.7730   42.8070  -10.1030 C.ar  181  TRP181      0.0810
    129  CE3      -15.8280   44.7760   -9.0230 C.ar  181  TRP181      0.0012
    130  CZ2      -15.5260   42.4050  -10.5500 C.ar  181  TRP181      0.0191
    131  CZ3      -14.5950   44.3690   -9.4670 C.ar  181  TRP181      0.0001
    132  CH2      -14.4470   43.1960  -10.2250 C.ar  181  TRP181      0.0015
    133  N        -21.3220   45.0610   -2.7370 N.3   184  TYR184     -0.1228
    134  CA       -20.2920   44.7700   -1.7450 C.3   184  TYR184      0.1721
    135  C        -19.8370   45.9680   -0.8860 C.2   184  TYR184      0.2437
    136  O        -19.8270   45.8810    0.3420 O.2   184  TYR184     -0.2733
    137  CB       -19.0960   44.0960   -2.4230 C.3   184  TYR184      0.0547
    138  CG       -19.4200   42.7250   -2.9600 C.ar  184  TYR184     -0.0200
    139  CD1      -20.0150   42.5700   -4.2010 C.ar  184  TYR184     -0.0009
    140  CD2      -19.1610   41.5720   -2.2080 C.ar  184  TYR184     -0.0009
    141  CE1      -20.3480   41.3260   -4.6910 C.ar  184  TYR184      0.0417
    142  CE2      -19.4880   40.3010   -2.6980 C.ar  184  TYR184      0.0417
    143  CZ       -20.0810   40.1870   -3.9470 C.ar  184  TYR184      0.1957
    144  OH       -20.3670   38.9470   -4.4910 O.3   184  TYR184     -0.2866
    145  N        -19.4510   47.0920   -1.5070 N.am  185  PRO185     -0.2729
    146  CA       -19.0280   48.2350   -0.6850 C.3   185  PRO185      0.1401
    147  C        -20.1300   48.5890    0.3250 C.2   185  PRO185      0.2269
    148  O        -19.8800   48.7600    1.5120 O.2   185  PRO185     -0.2865
    149  CB       -18.8410   49.3560   -1.7110 C.3   185  PRO185      0.0296
    150  CG       -18.4790   48.6290   -2.9590 C.3   185  PRO185      0.0237
    151  CD       -19.3990   47.4290   -2.9400 C.3   185  PRO185      0.0939
    152  N        -20.4570   46.5230    3.3130 N.3   188  TRP188     -0.1241
    153  CA       -19.4060   46.5400    4.3080 C.3   188  TRP188      0.1605
    154  C        -19.6660   47.6960    5.2510 C.2   188  TRP188      0.2264
    155  O        -19.3810   47.6140    6.4470 O.2   188  TRP188     -0.2867
    156  CB       -18.0360   46.6960    3.6750 C.3   188  TRP188      0.0550
    157  CG       -16.9310   46.3900    4.6610 C.ar  188  TRP188      0.0003
    158  CD1      -16.3790   45.1610    4.9210 C.ar  188  TRP188      0.0946
    159  CD2      -16.2530   47.3190    5.5150 C.ar  188  TRP188      0.0152
    160  NE1      -15.4020   45.2770    5.8750 N.ar  188  TRP188     -0.2442
    161  CE2      -15.3020   46.5880    6.2550 C.ar  188  TRP188      0.0810
    162  CE3      -16.3550   48.7000    5.7240 C.ar  188  TRP188      0.0012
    163  CZ2      -14.4570   47.1890    7.1870 C.ar  188  TRP188      0.0191
    164  CZ3      -15.5050   49.3000    6.6580 C.ar  188  TRP188      0.0001
    165  CH2      -14.5760   48.5470    7.3700 C.ar  188  TRP188      0.0015
    166  N        -23.6790   38.9630    2.4010 N.3   207  PHE207     -0.1241
    167  CA       -22.5210   38.6710    1.5660 C.3   207  PHE207      0.1605
    168  C        -22.6450   37.3070    0.9140 C.2   207  PHE207      0.2264
    169  O        -22.1860   37.1120   -0.2030 O.2   207  PHE207     -0.2867
    170  CB       -21.2100   38.7870    2.3570 C.3   207  PHE207      0.0534
    171  CG       -20.6360   40.1800    2.3710 C.ar  207  PHE207     -0.0203
    172  CD1      -20.4370   40.8730    1.1830 C.ar  207  PHE207     -0.0042
    173  CD2      -20.2820   40.7950    3.5630 C.ar  207  PHE207     -0.0042
    174  CE1      -19.8920   42.1620    1.1680 C.ar  207  PHE207     -0.0003
    175  CE2      -19.7360   42.0780    3.5690 C.ar  207  PHE207     -0.0003
    176  CZ       -19.5400   42.7660    2.3540 C.ar  207  PHE207     -0.0000
    177  N        -22.3150   36.4790   -2.7810 N.3   211  ASP211     -0.1239
    178  CA       -21.3640   35.4770   -3.3090 C.3   211  ASP211      0.1674
    179  C        -22.0610   34.3620   -4.1430 C.2   211  ASP211      0.2266
    180  O        -21.5880   34.0130   -5.2160 O.2   211  ASP211     -0.2867
    181  CB       -20.5310   34.8350   -2.1720 C.3   211  ASP211      0.1410
    182  CG       -19.5730   35.8320   -1.4870 C.2   211  ASP211      0.3668
    183  OD1      -19.1490   36.8070   -2.1340 O.co2 211  ASP211     -0.2456
    184  OD2      -19.2060   35.6190   -0.3100 O.co2 211  ASP211     -0.2456
    185  N        -22.9420   36.0040   -7.3860 N.3   214  ALA214     -0.1231
    186  CA       -21.7230   36.1920   -8.1780 C.3   214  ALA214      0.1694
    187  C        -20.9890   34.9010   -8.5700 C.2   214  ALA214      0.2591
    188  O        -20.5670   34.7530   -9.7250 O.2   214  ALA214     -0.2718
    189  CB       -20.7700   37.0850   -7.4300 C.3   214  ALA214      0.0304
    190  N        -20.8290   33.9820   -7.6230 N.am  215  LYS215     -0.1980
    191  CA       -20.0940   32.7350   -7.8790 C.3   215  LYS215      0.1596
    192  C        -20.8200   31.6720   -8.7100 C.2   215  LYS215      0.2287
    193  O        -20.1820   30.8250   -9.3690 O.2   215  LYS215     -0.2864
    194  CB       -19.6390   32.1170   -6.5420 C.3   215  LYS215      0.0298
    195  CG       -18.4780   32.8570   -5.8470 C.3   215  LYS215      0.0038
    196  CD       -18.9140   33.8400   -4.7900 C.3   215  LYS215      0.0206
    197  CE       -17.7830   34.7650   -4.3460 C.3   215  LYS215      0.1093
    198  NZ       -17.2990   35.6160   -5.4360 N.3   215  LYS215     -0.1314
@<TRIPOS>BOND
     1    51    50    2
     2    50    49    1
     3    49    48    1
     4    49    52    1
     5    55    53    1
     6    52    53    1
     7    53    54    1
     8    44    43    2
     9   130   132   ar
    10   130   128   ar
    11     7     5    1
    12   127   128   ar
    13   127   125   ar
    14   132   131   ar
    15   128   126   ar
    16     1     2    1
    17    43    42    1
    18    37    36    2
    19   106   105    2
    20   188   187    2
    21     5     2    1
    22     5     6    1
    23   125   124   ar
    24   131   129   ar
    25   193   192    2
    26   126   124   ar
    27   126   129   ar
    28   117   116    1
    29   124   123    1
    30     2     3    1
    31   111   112    1
    32    42    41    1
    33    42    45    1
    34   115   116    1
    35   115   112    1
    36   192   191    1
    37   105   104    1
    38    36    41   am
    39    36    35    1
    40   187   186    1
    41   187   190   am
    42   116   118    1
    43   123   120    1
    44   186   189    1
    45   186   185    1
    46     3     4    2
    47   112   113    1
    48    45    47    1
    49    45    46    1
    50   191   190    1
    51   191   194    1
    52   119   120    1
    53   119   113   am
    54    35    38    1
    55    35    34    1
    56   104   103    1
    57   104   107    1
    58   120   121    1
    59    38    39    1
    60    38    40    1
    61   113   114    2
    62   108   107    1
    63   108   109    1
    64   194   195    1
    65    63    62    1
    66   121   122    2
    67   110   109    1
    68    62    61    1
    69   195   196    1
    70   198   197    1
    71    99    98    2
    72   180   179    2
    73    23    22    2
    74    60    61    1
    75    60    57    1
    76   196   197    1
    77   141   139   ar
    78   141   143   ar
    79    56    57    1
    80   144   143    1
    81   139   138   ar
    82    98    97    1
    83   179   178    1
    84    57    58    1
    85   143   142   ar
    86    22    21    1
    87    93    92    2
    88    69    71    1
    89    69    68    1
    90   178   177    1
    91   178   181    1
    92    21    24    1
    93    21    20    1
    94   102   100    1
    95   138   137    1
    96   138   140   ar
    97   150   151    1
    98   150   149    1
    99   151   145    1
   100    97   100    1
   101    97    96    1
   102    64    58   am
   103    64    65    1
   104   133   134    1
   105    58    59    2
   106   142   140   ar
   107    92    96   am
   108    92    91    1
   109    24    25    1
   110   137   134    1
   111    68    65    1
   112    68    70    1
   113    26    25   ar
   114    26    28   ar
   115   181   182    1
   116   183   182   ar
   117   100   101    1
   118    25    27   ar
   119    65    66    1
   120   134   135    1
   121   149   146    1
   122    91    90    1
   123    91    94    1
   124   145   135   am
   125   145   146    1
   126   182   184   ar
   127    28    29   ar
   128    95    94    1
   129   135   136    2
   130    66    67    2
   131    27    29   ar
   132    27    30   ar
   133   146   147    1
   134    29    31   ar
   135    11    10    2
   136   169   168    2
   137    30    32   ar
   138   147   148    2
   139    31    33   ar
   140    79    78    2
   141    10     9    1
   142   168   167    1
   143    32    33   ar
   144   174   172   ar
   145   174   176   ar
   146   172   171   ar
   147    72    73    1
   148    89    87   ar
   149    89    88   ar
   150     9    12    1
   151     9     8    1
   152   167   170    1
   153   167   166    1
   154    87    85   ar
   155    78    77    1
   156    73    74    1
   157    88    86   ar
   158    85    84   ar
   159    85    83   ar
   160    12    13    1
   161   176   175   ar
   162   170   171    1
   163   171   173   ar
   164    84    82   ar
   165    14    13   ar
   166    14    16   ar
   167    86    83   ar
   168    83    81   ar
   169    77    76    1
   170    77    80    1
   171    82    81   ar
   172    13    15   ar
   173    74    75    2
   174    16    18   ar
   175    81    80    1
   176   152   153    1
   177   173   175   ar
   178   156   153    1
   179   156   157    1
   180    15    17   ar
   181    18    17   ar
   182    18    19    1
   183   153   154    1
   184   157   158   ar
   185   157   159   ar
   186   158   160   ar
   187   154   155    2
   188   159   162   ar
   189   159   161   ar
   190   162   164   ar
   191   160   161   ar
   192   161   163   ar
   193   164   165   ar
   194   163   165   ar
