@<TRIPOS>MOLECULE
tmp/1cwqB11.pdb
 70 64 0 0 0
SMALL
GASTEIGER

@<TRIPOS>ATOM
      1  N        -21.0610   24.2920   -3.6170 N.3    20  GLY20      -0.1225
      2  CA       -20.6830   22.9430   -4.0130 C.3    20  GLY20       0.1811
      3  C        -21.5190   22.4500   -5.1780 C.2    20  GLY20       0.2280
      4  O        -21.0070   22.1410   -6.2540 O.2    20  GLY20      -0.2866
      5  N        -20.7110   23.8900   -8.2880 N.3    23  THR23      -0.1203
      6  CA       -19.5040   23.3200   -8.8620 C.3    23  THR23       0.1994
      7  C        -19.7320   22.0180   -9.6220 C.2    23  THR23       0.2617
      8  O        -19.4620   21.9470  -10.8300 O.2    23  THR23      -0.2717
      9  CB       -18.4600   23.1120   -7.7620 C.3    23  THR23       0.1784
     10  OG1      -18.2430   24.3650   -7.1090 O.3    23  THR23      -0.2211
     11  CG2      -17.1320   22.6200   -8.3500 C.3    23  THR23       0.0376
     12  N        -20.2180   20.9900   -8.9290 N.am   24  LEU24      -0.1979
     13  CA       -20.4670   19.7080   -9.5890 C.3    24  LEU24       0.1596
     14  C        -21.3160   19.9450  -10.8290 C.2    24  LEU24       0.2287
     15  O        -21.2160   19.2050  -11.7980 O.2    24  LEU24      -0.2864
     16  CB       -21.1800   18.7240   -8.6540 C.3    24  LEU24       0.0297
     17  CG       -20.4390   18.3370   -7.3650 C.3    24  LEU24       0.0022
     18  CD1      -21.3480   17.4930   -6.4720 C.3    24  LEU24       0.0001
     19  CD2      -19.1740   17.5710   -7.7000 C.3    24  LEU24       0.0001
     20  N        -19.2740   21.5530  -13.4940 N.3    27  LEU27      -0.1245
     21  CA       -18.2940   20.5090  -13.7730 C.3    27  LEU27       0.1561
     22  C        -18.9200   19.6200  -14.8430 C.2    27  LEU27       0.2260
     23  O        -18.3980   19.4970  -15.9470 O.2    27  LEU27      -0.2867
     24  CB       -18.0090   19.7040  -12.5040 C.3    27  LEU27       0.0270
     25  CG       -17.1250   20.3830  -11.4420 C.3    27  LEU27       0.0019
     26  CD1      -17.1690   19.5990  -10.1460 C.3    27  LEU27       0.0001
     27  CD2      -15.7010   20.5000  -11.9760 C.3    27  LEU27       0.0001
     28  N        -13.5690   26.8700  -17.8540 N.3    43  ALA43      -0.1245
     29  CA       -12.6060   26.5770  -16.7990 C.3    43  ALA43       0.1562
     30  C        -12.8400   27.6060  -15.6830 C.2    43  ALA43       0.2260
     31  O        -13.0180   27.2430  -14.5160 O.2    43  ALA43      -0.2867
     32  CB       -11.1880   26.6810  -17.3370 C.3    43  ALA43       0.0290
     33  N        -16.2060   27.4610  -13.6010 N.3    46  THR46      -0.1203
     34  CA       -16.3300   26.3100  -12.7260 C.3    46  THR46       0.1994
     35  C        -15.3920   26.4460  -11.5350 C.2    46  THR46       0.2617
     36  O        -15.6910   25.9900  -10.4380 O.2    46  THR46      -0.2717
     37  CB       -16.0190   25.0190  -13.5100 C.3    46  THR46       0.1784
     38  OG1      -17.0100   24.8460  -14.5390 O.3    46  THR46      -0.2211
     39  CG2      -16.0230   23.8050  -12.5860 C.3    46  THR46       0.0376
     40  N        -14.2640   27.1060  -11.7570 N.am   47  LEU47      -0.1979
     41  CA       -13.2720   27.2860  -10.7070 C.3    47  LEU47       0.1596
     42  C        -13.6640   28.2980   -9.6420 C.2    47  LEU47       0.2287
     43  O        -13.3780   28.0940   -8.4750 O.2    47  LEU47      -0.2864
     44  CB       -11.9130   27.6490  -11.3250 C.3    47  LEU47       0.0297
     45  CG       -11.2780   26.4700  -12.0700 C.3    47  LEU47       0.0022
     46  CD1       -9.9030   26.8340  -12.6220 C.3    47  LEU47       0.0001
     47  CD2      -11.1780   25.2910  -11.1140 C.3    47  LEU47       0.0001
     48  N        -15.6510   26.7290   -7.1550 N.3    50  ALA50      -0.1245
     49  CA       -14.8790   25.6170   -6.5870 C.3    50  ALA50       0.1562
     50  C        -14.0680   26.2140   -5.4430 C.2    50  ALA50       0.2260
     51  O        -13.9040   25.6090   -4.3740 O.2    50  ALA50      -0.2867
     52  CB       -13.9550   25.0250   -7.6390 C.3    50  ALA50       0.0290
     53  N        -16.6410   27.3790   -2.7800 N.3    53  PHE53      -0.1227
     54  CA       -16.9920   26.2400   -1.9490 C.3    53  PHE53       0.1736
     55  C        -15.9310   25.9800   -0.8820 C.2    53  PHE53       0.2596
     56  O        -16.2320   25.8130    0.2990 O.2    53  PHE53      -0.2718
     57  CB       -17.1600   24.9800   -2.8250 C.3    53  PHE53       0.0547
     58  CG       -17.3510   23.7120   -2.0340 C.ar   53  PHE53      -0.0202
     59  CD1      -18.4860   23.5300   -1.2430 C.ar   53  PHE53      -0.0042
     60  CD2      -16.3730   22.7270   -2.0300 C.ar   53  PHE53      -0.0042
     61  CE1      -18.6450   22.3950   -0.4600 C.ar   53  PHE53      -0.0003
     62  CE2      -16.5200   21.5780   -1.2440 C.ar   53  PHE53      -0.0003
     63  CZ       -17.6650   21.4190   -0.4540 C.ar   53  PHE53      -0.0000
     64  N        -14.6800   25.9410   -1.3160 N.am   54  THR54      -0.1953
     65  CA       -13.5580   25.6760   -0.4280 C.3    54  THR54       0.1897
     66  C        -13.5220   26.7000    0.7100 C.2    54  THR54       0.2313
     67  O        -13.3790   26.3540    1.8830 O.2    54  THR54      -0.2863
     68  CB       -12.2690   25.7380   -1.2770 C.3    54  THR54       0.1794
     69  OG1      -11.7620   24.4150   -1.4630 O.3    54  THR54      -0.2208
     70  CG2      -11.2580   26.7050   -0.6950 C.3    54  THR54       0.0378
@<TRIPOS>BOND
     1    28    29    1
     2    32    29    1
     3    29    30    1
     4    23    22    2
     5    30    31    2
     6    22    21    1
     7    38    37    1
     8    21    20    1
     9    21    24    1
    10    33    34    1
    11    37    34    1
    12    37    39    1
    13    34    35    1
    14    46    45    1
    15    24    25    1
    16    45    44    1
    17    45    47    1
    18    27    25    1
    19    15    14    2
    20    40    35   am
    21    40    41    1
    22    35    36    2
    23    25    26    1
    24    44    41    1
    25     8     7    2
    26    14    13    1
    27    41    42    1
    28    42    43    2
    29     7    12   am
    30     7     6    1
    31    13    12    1
    32    13    16    1
    33     6     5    1
    34     6     9    1
    35    16    17    1
    36    11     9    1
    37     9    10    1
    38    19    17    1
    39    52    49    1
    40    17    18    1
    41    48    49    1
    42    49    50    1
    43     4     3    2
    44    50    51    2
    45     3     2    1
    46     2     1    1
    47    57    58    1
    48    57    54    1
    49    53    54    1
    50    58    60   ar
    51    58    59   ar
    52    60    62   ar
    53    54    55    1
    54    69    68    1
    55    64    55   am
    56    64    65    1
    57    68    70    1
    58    68    65    1
    59    62    63   ar
    60    59    61   ar
    61    55    56    2
    62    61    63   ar
    63    65    66    1
    64    66    67    2
