@<TRIPOS>MOLECULE
tmp/1cwqB04.pdb
 79 73 0 0 0
SMALL
GASTEIGER

@<TRIPOS>ATOM
      1  N        -21.0610   24.2920   -3.6170 N.3    20  GLY20      -0.1225
      2  CA       -20.6830   22.9430   -4.0130 C.3    20  GLY20       0.1811
      3  C        -21.5190   22.4500   -5.1780 C.2    20  GLY20       0.2280
      4  O        -21.0070   22.1410   -6.2540 O.2    20  GLY20      -0.2866
      5  N        -20.7110   23.8900   -8.2880 N.3    23  THR23      -0.1203
      6  CA       -19.5040   23.3200   -8.8620 C.3    23  THR23       0.1994
      7  C        -19.7320   22.0180   -9.6220 C.2    23  THR23       0.2617
      8  O        -19.4620   21.9470  -10.8300 O.2    23  THR23      -0.2717
      9  CB       -18.4600   23.1120   -7.7620 C.3    23  THR23       0.1784
     10  OG1      -18.2430   24.3650   -7.1090 O.3    23  THR23      -0.2211
     11  CG2      -17.1320   22.6200   -8.3500 C.3    23  THR23       0.0376
     12  N        -20.2180   20.9900   -8.9290 N.am   24  LEU24      -0.1979
     13  CA       -20.4670   19.7080   -9.5890 C.3    24  LEU24       0.1596
     14  C        -21.3160   19.9450  -10.8290 C.2    24  LEU24       0.2287
     15  O        -21.2160   19.2050  -11.7980 O.2    24  LEU24      -0.2864
     16  CB       -21.1800   18.7240   -8.6540 C.3    24  LEU24       0.0297
     17  CG       -20.4390   18.3370   -7.3650 C.3    24  LEU24       0.0022
     18  CD1      -21.3480   17.4930   -6.4720 C.3    24  LEU24       0.0001
     19  CD2      -19.1740   17.5710   -7.7000 C.3    24  LEU24       0.0001
     20  N        -19.2740   21.5530  -13.4940 N.3    27  LEU27      -0.1245
     21  CA       -18.2940   20.5090  -13.7730 C.3    27  LEU27       0.1561
     22  C        -18.9200   19.6200  -14.8430 C.2    27  LEU27       0.2260
     23  O        -18.3980   19.4970  -15.9470 O.2    27  LEU27      -0.2867
     24  CB       -18.0090   19.7040  -12.5040 C.3    27  LEU27       0.0270
     25  CG       -17.1250   20.3830  -11.4420 C.3    27  LEU27       0.0019
     26  CD1      -17.1690   19.5990  -10.1460 C.3    27  LEU27       0.0001
     27  CD2      -15.7010   20.5000  -11.9760 C.3    27  LEU27       0.0001
     28  N        -19.4950   21.1680  -17.9920 N.3    30  GLY30      -0.1225
     29  CA       -18.2240   21.2800  -18.6790 C.3    30  GLY30       0.1811
     30  C        -17.8900   20.1220  -19.5990 C.2    30  GLY30       0.2280
     31  O        -16.7880   20.0400  -20.1330 O.2    30  GLY30      -0.2866
     32  N        -15.3060   28.2590  -19.5350 N.3    42  TYR42      -0.1227
     33  CA       -15.8130   27.1660  -18.7300 C.3    42  TYR42       0.1736
     34  C        -14.8730   26.8220  -17.5920 C.2    42  TYR42       0.2595
     35  O        -15.3230   26.5430  -16.4720 O.2    42  TYR42      -0.2718
     36  CB       -16.0920   25.9500  -19.6010 C.3    42  TYR42       0.0548
     37  CG       -17.5590   25.8710  -19.8660 C.ar   42  TYR42      -0.0200
     38  CD1      -18.3950   25.2550  -18.9470 C.ar   42  TYR42      -0.0009
     39  CD2      -18.1400   26.5680  -20.9450 C.ar   42  TYR42      -0.0009
     40  CE1      -19.7780   25.3370  -19.0700 C.ar   42  TYR42       0.0417
     41  CE2      -19.5270   26.6610  -21.0740 C.ar   42  TYR42       0.0417
     42  CZ       -20.3380   26.0440  -20.1190 C.ar   42  TYR42       0.1957
     43  OH       -21.7000   26.1810  -20.1640 O.3    42  TYR42      -0.2866
     44  N        -13.5690   26.8700  -17.8540 N.am   43  ALA43      -0.1980
     45  CA       -12.6060   26.5770  -16.7990 C.3    43  ALA43       0.1597
     46  C        -12.8400   27.6060  -15.6830 C.2    43  ALA43       0.2287
     47  O        -13.0180   27.2430  -14.5160 O.2    43  ALA43      -0.2864
     48  CB       -11.1880   26.6810  -17.3370 C.3    43  ALA43       0.0319
     49  N        -16.2060   27.4610  -13.6010 N.3    46  THR46      -0.1203
     50  CA       -16.3300   26.3100  -12.7260 C.3    46  THR46       0.1994
     51  C        -15.3920   26.4460  -11.5350 C.2    46  THR46       0.2617
     52  O        -15.6910   25.9900  -10.4380 O.2    46  THR46      -0.2717
     53  CB       -16.0190   25.0190  -13.5100 C.3    46  THR46       0.1784
     54  OG1      -17.0100   24.8460  -14.5390 O.3    46  THR46      -0.2211
     55  CG2      -16.0230   23.8050  -12.5860 C.3    46  THR46       0.0376
     56  N        -14.2640   27.1060  -11.7570 N.am   47  LEU47      -0.1979
     57  CA       -13.2720   27.2860  -10.7070 C.3    47  LEU47       0.1596
     58  C        -13.6640   28.2980   -9.6420 C.2    47  LEU47       0.2287
     59  O        -13.3780   28.0940   -8.4750 O.2    47  LEU47      -0.2864
     60  CB       -11.9130   27.6490  -11.3250 C.3    47  LEU47       0.0297
     61  CG       -11.2780   26.4700  -12.0700 C.3    47  LEU47       0.0022
     62  CD1       -9.9030   26.8340  -12.6220 C.3    47  LEU47       0.0001
     63  CD2      -11.1780   25.2910  -11.1140 C.3    47  LEU47       0.0001
     64  N        -15.6510   26.7290   -7.1550 N.3    50  ALA50      -0.1245
     65  CA       -14.8790   25.6170   -6.5870 C.3    50  ALA50       0.1562
     66  C        -14.0680   26.2140   -5.4430 C.2    50  ALA50       0.2260
     67  O        -13.9040   25.6090   -4.3740 O.2    50  ALA50      -0.2867
     68  CB       -13.9550   25.0250   -7.6390 C.3    50  ALA50       0.0290
     69  N        -16.6410   27.3790   -2.7800 N.3    53  PHE53      -0.1241
     70  CA       -16.9920   26.2400   -1.9490 C.3    53  PHE53       0.1605
     71  C        -15.9310   25.9800   -0.8820 C.2    53  PHE53       0.2264
     72  O        -16.2320   25.8130    0.2990 O.2    53  PHE53      -0.2867
     73  CB       -17.1600   24.9800   -2.8250 C.3    53  PHE53       0.0534
     74  CG       -17.3510   23.7120   -2.0340 C.ar   53  PHE53      -0.0203
     75  CD1      -18.4860   23.5300   -1.2430 C.ar   53  PHE53      -0.0042
     76  CD2      -16.3730   22.7270   -2.0300 C.ar   53  PHE53      -0.0042
     77  CE1      -18.6450   22.3950   -0.4600 C.ar   53  PHE53      -0.0003
     78  CE2      -16.5200   21.5780   -1.2440 C.ar   53  PHE53      -0.0003
     79  CZ       -17.6650   21.4190   -0.4540 C.ar   53  PHE53      -0.0000
@<TRIPOS>BOND
     1    41    39   ar
     2    41    42   ar
     3    39    37   ar
     4    43    42    1
     5    31    30    2
     6    42    40   ar
     7    37    36    1
     8    37    38   ar
     9    36    33    1
    10    30    29    1
    11    32    33    1
    12    40    38   ar
    13    33    34    1
    14    29    28    1
    15    44    34   am
    16    44    45    1
    17    34    35    2
    18    48    45    1
    19    45    46    1
    20    23    22    2
    21    46    47    2
    22    22    21    1
    23    54    53    1
    24    21    20    1
    25    21    24    1
    26    49    50    1
    27    53    50    1
    28    53    55    1
    29    50    51    1
    30    62    61    1
    31    24    25    1
    32    61    60    1
    33    61    63    1
    34    27    25    1
    35    15    14    2
    36    56    51   am
    37    56    57    1
    38    51    52    2
    39    25    26    1
    40    60    57    1
    41     8     7    2
    42    14    13    1
    43    57    58    1
    44    58    59    2
    45     7    12   am
    46     7     6    1
    47    13    12    1
    48    13    16    1
    49     6     5    1
    50     6     9    1
    51    16    17    1
    52    11     9    1
    53     9    10    1
    54    19    17    1
    55    68    65    1
    56    17    18    1
    57    64    65    1
    58    65    66    1
    59     4     3    2
    60    66    67    2
    61     3     2    1
    62     2     1    1
    63    73    74    1
    64    73    70    1
    65    69    70    1
    66    74    76   ar
    67    74    75   ar
    68    76    78   ar
    69    70    71    1
    70    78    79   ar
    71    75    77   ar
    72    71    72    2
    73    77    79   ar
