@<TRIPOS>MOLECULE
tmp/1cwuB01.pdb
 166 157 0 0 0
SMALL
GASTEIGER

@<TRIPOS>ATOM
      1  N         24.0440   48.5540   10.1030 N.3   125  SER125     -0.1202
      2  CA        23.6970   48.8800    8.7390 C.3   125  SER125      0.2020
      3  C         23.9880   47.6850    7.8710 C.2   125  SER125      0.2619
      4  O         24.5720   47.7810    6.7900 O.2   125  SER125     -0.2717
      5  CB        24.5210   50.0810    8.2790 C.3   125  SER125      0.2103
      6  OG        24.4140   50.2660    6.8770 O.3   125  SER125     -0.2182
      7  N         23.5310   46.5490    8.3420 N.am  126  LEU126     -0.1965
      8  CA        23.7800   45.3210    7.6610 C.3   126  LEU126      0.1728
      9  C         22.5520   44.4410    7.7710 C.2   126  LEU126      0.2617
     10  O         21.5320   44.8300    8.3540 O.2   126  LEU126     -0.2715
     11  CB        24.9720   44.6580    8.3510 C.3   126  LEU126      0.0311
     12  CG        24.7690   44.4410    9.8520 C.3   126  LEU126      0.0022
     13  CD1       23.9400   43.1760   10.0570 C.3   126  LEU126      0.0001
     14  CD2       26.0870   44.3310   10.5750 C.3   126  LEU126      0.0001
     15  N         22.6730   43.2470    7.2140 N.am  127  GLY127     -0.1940
     16  CA        21.6240   42.2750    7.2090 C.3   127  GLY127      0.2014
     17  C         21.9430   41.4160    6.0080 C.2   127  GLY127      0.2639
     18  O         22.7440   41.8100    5.1630 O.2   127  GLY127     -0.2714
     19  N         21.3590   40.2240    5.9550 N.am  128  ASN128     -0.1958
     20  CA        21.5370   39.3320    4.8270 C.3   128  ASN128      0.1819
     21  C         20.3470   38.4170    4.7500 C.2   128  ASN128      0.2621
     22  O         19.7990   38.0230    5.7720 O.2   128  ASN128     -0.2715
     23  CB        22.8190   38.4910    4.9280 C.3   128  ASN128      0.1195
     24  CG        23.0890   37.6870    3.6510 C.2   128  ASN128      0.2630
     25  OD1       23.3060   38.2690    2.5830 O.2   128  ASN128     -0.2716
     26  ND2       22.8490   36.3710    3.7150 N.am  128  ASN128     -0.0877
     27  N         19.9770   38.0500    3.5280 N.am  129  GLY129     -0.1954
     28  CA        18.8590   37.1600    3.3040 C.3   129  GLY129      0.1869
     29  C         19.1910   36.2660    2.1300 C.2   129  GLY129      0.2309
     30  O         19.1360   36.6940    0.9720 O.2   129  GLY129     -0.2863
     31  N         15.9430   36.1800   -0.1570 N.3   132  VAL132     -0.1245
     32  CA        15.1740   37.3850   -0.5110 C.3   132  VAL132      0.1561
     33  C         14.3080   37.2490   -1.7710 C.2   132  VAL132      0.2260
     34  O         13.2590   37.8680   -1.8880 O.2   132  VAL132     -0.2867
     35  CB        16.0830   38.6330   -0.6640 C.3   132  VAL132      0.0252
     36  CG1       16.6880   38.6990   -2.0610 C.3   132  VAL132      0.0019
     37  CG2       15.2930   39.8990   -0.3900 C.3   132  VAL132      0.0019
     38  N         19.9390   39.6650    9.8730 N.3   151  SER151     -0.1217
     39  CA        19.2520   40.9330    9.8550 C.3   151  SER151      0.1889
     40  C         18.6460   41.4750   11.1650 C.2   151  SER151      0.2288
     41  O         18.6680   42.6760   11.3860 O.2   151  SER151     -0.2866
     42  CB        18.2470   40.9510    8.7280 C.3   151  SER151      0.2089
     43  OG        18.8720   40.6130    7.4940 O.3   151  SER151     -0.2183
     44  N         15.8330   50.0810    8.8810 N.3   176  THR176     -0.1203
     45  CA        14.7630   49.1200    8.6250 C.3   176  THR176      0.1994
     46  C         14.1070   49.4220    7.3090 C.2   176  THR176      0.2617
     47  O         14.6560   50.1630    6.5270 O.2   176  THR176     -0.2717
     48  CB        13.7530   49.0240    9.7960 C.3   176  THR176      0.1784
     49  OG1       12.8150   47.9720    9.5420 O.3   176  THR176     -0.2211
     50  CG2       13.0240   50.3270    9.9950 C.3   176  THR176      0.0376
     51  N         12.9820   48.7820    7.0200 N.am  177  TYR177     -0.1975
     52  CA        12.2780   49.0060    5.7480 C.3   177  TYR177      0.1639
     53  C         10.7880   48.7160    5.8310 C.2   177  TYR177      0.2290
     54  O         10.3410   47.8460    6.5760 O.2   177  TYR177     -0.2864
     55  CB        12.9160   48.2390    4.5880 C.3   177  TYR177      0.0560
     56  CG        12.1850   48.4230    3.2620 C.ar  177  TYR177     -0.0198
     57  CD1       12.1220   49.6630    2.6370 C.ar  177  TYR177     -0.0009
     58  CD2       11.5880   47.3570    2.6310 C.ar  177  TYR177     -0.0009
     59  CE1       11.4440   49.8290    1.4240 C.ar  177  TYR177      0.0417
     60  CE2       10.9210   47.5200    1.4270 C.ar  177  TYR177      0.0417
     61  CZ        10.8390   48.7500    0.8420 C.ar  177  TYR177      0.1957
     62  OH        10.1670   48.8850   -0.3550 O.3   177  TYR177     -0.2866
     63  N         10.2810   41.5980   -1.8030 N.3   187  TYR187     -0.1241
     64  CA        11.1490   41.6300   -0.6440 C.3   187  TYR187      0.1605
     65  C         10.8770   40.3790    0.1990 C.2   187  TYR187      0.2264
     66  O         10.1970   40.4500    1.2280 O.2   187  TYR187     -0.2867
     67  CB        10.8660   42.9120    0.1470 C.3   187  TYR187      0.0534
     68  CG        11.9140   43.2650    1.1720 C.ar  187  TYR187     -0.0201
     69  CD1       13.1780   43.6750    0.7930 C.ar  187  TYR187     -0.0009
     70  CD2       11.6090   43.2570    2.5120 C.ar  187  TYR187     -0.0009
     71  CE1       14.1280   44.0120    1.7450 C.ar  187  TYR187      0.0417
     72  CE2       12.5410   43.5910    3.4650 C.ar  187  TYR187      0.0417
     73  CZ        13.7890   43.9780    3.0800 C.ar  187  TYR187      0.1957
     74  OH        14.7170   44.2910    4.0620 O.3   187  TYR187     -0.2866
     75  N         12.8080   38.4260    4.8900 N.3   191  MET191     -0.1245
     76  CA        13.4900   39.6890    5.1650 C.3   191  MET191      0.1570
     77  C         12.5030   40.6180    5.7930 C.2   191  MET191      0.2261
     78  O         12.7940   41.2460    6.8040 O.2   191  MET191     -0.2867
     79  CB        14.0430   40.3120    3.8980 C.3   191  MET191      0.0387
     80  CG        15.4000   39.7700    3.5020 C.3   191  MET191      0.0595
     81  SD        16.5470   39.8500    4.8690 S.3   191  MET191     -0.1393
     82  CE        16.8500   41.6330    4.9410 C.3   191  MET191      0.0692
     83  N         12.7740   42.5730    9.3050 N.3   195  LYS195     -0.1245
     84  CA        12.6030   43.9930    9.6000 C.3   195  LYS195      0.1561
     85  C         11.5860   44.1630   10.7210 C.2   195  LYS195      0.2260
     86  O         11.8230   44.8630   11.6980 O.2   195  LYS195     -0.2867
     87  CB        12.1620   44.7570    8.3540 C.3   195  LYS195      0.0271
     88  CG        13.1940   44.8220    7.2610 C.3   195  LYS195      0.0035
     89  CD        14.5720   45.2020    7.8330 C.3   195  LYS195      0.0206
     90  CE        15.5870   45.4850    6.7180 C.3   195  LYS195      0.1093
     91  NZ        17.0010   45.6250    7.2340 N.3   195  LYS195     -0.1314
     92  N         14.1930   53.4550    5.9750 N.3   222  ALA222     -0.1231
     93  CA        14.6400   54.1770    4.7940 C.3   222  ALA222      0.1694
     94  C         13.9980   53.7990    3.5040 C.2   222  ALA222      0.2593
     95  O         13.5120   52.6850    3.3370 O.2   222  ALA222     -0.2718
     96  CB        16.1540   54.1260    4.6610 C.3   222  ALA222      0.0304
     97  N         14.0360   54.7490    2.5770 N.am  223  GLY223     -0.1943
     98  CA        13.5050   54.5710    1.2370 C.3   223  GLY223      0.1998
     99  C         14.5650   53.8590    0.4330 C.2   223  GLY223      0.2481
    100  O         15.6370   53.5080    0.9180 O.2   223  GLY223     -0.2729
    101  N         14.2590   53.6540   -0.8180 N.am  224  PRO224     -0.2715
    102  CA        15.1480   52.9380   -1.7020 C.3   224  PRO224      0.1536
    103  C         16.3750   53.7290   -2.0980 C.2   224  PRO224      0.2598
    104  O         16.2880   54.8910   -2.4990 O.2   224  PRO224     -0.2715
    105  CB        14.2670   52.6270   -2.9240 C.3   224  PRO224      0.0310
    106  CG        13.0100   53.4880   -2.7590 C.3   224  PRO224      0.0237
    107  CD        12.8660   53.7150   -1.2930 C.3   224  PRO224      0.0939
    108  N         17.5100   53.0410   -2.0550 N.am  225  LEU225     -0.1978
    109  CA        18.8140   53.5730   -2.4330 C.3   225  LEU225      0.1596
    110  C         19.5310   52.4050   -3.1530 C.2   225  LEU225      0.2287
    111  O         19.6770   51.3120   -2.5800 O.2   225  LEU225     -0.2864
    112  CB        19.5660   53.9720   -1.1650 C.3   225  LEU225      0.0297
    113  CG        21.0130   54.3400   -1.3970 C.3   225  LEU225      0.0022
    114  CD1       21.0490   55.7400   -1.9670 C.3   225  LEU225      0.0001
    115  CD2       21.8630   54.1780   -0.1090 C.3   225  LEU225      0.0001
    116  N         22.0390   50.8020   -3.5070 N.3   227  SER227     -0.1217
    117  CA        23.2730   50.2580   -2.9400 C.3   227  SER227      0.1889
    118  C         23.6760   48.8760   -3.5120 C.2   227  SER227      0.2288
    119  O         23.0190   48.3360   -4.4160 O.2   227  SER227     -0.2866
    120  CB        23.1390   50.1540   -1.4170 C.3   227  SER227      0.2089
    121  OG        22.0830   49.2690   -1.0570 O.3   227  SER227     -0.2183
    122  N         23.7750   45.8800   -1.8790 N.3   229  ALA229     -0.1231
    123  CA        22.8110   44.8730   -1.4500 C.3   229  ALA229      0.1694
    124  C         21.4540   45.0920   -2.1350 C.2   229  ALA229      0.2591
    125  O         20.7590   44.1440   -2.4940 O.2   229  ALA229     -0.2718
    126  CB        22.6480   44.9060    0.0550 C.3   229  ALA229      0.0304
    127  N         21.0680   46.3460   -2.3060 N.am  230  ALA230     -0.1980
    128  CA        19.7980   46.6080   -2.9350 C.3   230  ALA230      0.1597
    129  C         19.9710   46.1330   -4.3530 C.2   230  ALA230      0.2287
    130  O         19.0300   45.6390   -4.9850 O.2   230  ALA230     -0.2864
    131  CB        19.4660   48.1000   -2.8840 C.3   230  ALA230      0.0319
    132  N         19.0740   42.4310   -4.5650 N.3   233  ILE233     -0.1245
    133  CA        17.6500   42.1660   -4.4480 C.3   233  ILE233      0.1561
    134  C         17.0090   42.1600   -5.8200 C.2   233  ILE233      0.2260
    135  O         16.2900   41.2220   -6.1660 O.2   233  ILE233     -0.2867
    136  CB        16.9460   43.0940   -3.4350 C.3   233  ILE233      0.0252
    137  CG1       17.6250   42.9690   -2.0770 C.3   233  ILE233      0.0019
    138  CG2       15.5100   42.6490   -3.2260 C.3   233  ILE233      0.0019
    139  CD1       16.8230   43.5490   -0.9700 C.3   233  ILE233      0.0001
    140  N         15.1500   44.7290   -7.4310 N.3   235  PHE235     -0.1227
    141  CA        13.8400   45.3360   -7.5380 C.3   235  PHE235      0.1736
    142  C         13.8230   46.8400   -7.1310 C.2   235  PHE235      0.2595
    143  O         12.7710   47.4930   -7.1760 O.2   235  PHE235     -0.2718
    144  CB        12.8280   44.5140   -6.7060 C.3   235  PHE235      0.0547
    145  CG        12.6800   44.9730   -5.2710 C.ar  235  PHE235     -0.0202
    146  CD1       11.4210   45.1890   -4.7310 C.ar  235  PHE235     -0.0042
    147  CD2       13.7880   45.1750   -4.4750 C.ar  235  PHE235     -0.0042
    148  CE1       11.2740   45.6090   -3.4240 C.ar  235  PHE235     -0.0003
    149  CE2       13.6460   45.6030   -3.1750 C.ar  235  PHE235     -0.0003
    150  CZ        12.3860   45.8160   -2.6470 C.ar  235  PHE235     -0.0000
    151  N         14.9720   47.3580   -6.7070 N.am  236  ILE236     -0.1980
    152  CA        15.0990   48.7300   -6.2110 C.3   236  ILE236      0.1595
    153  C         14.8360   49.8390   -7.1950 C.2   236  ILE236      0.2287
    154  O         14.1460   50.8230   -6.9060 O.2   236  ILE236     -0.2864
    155  CB        16.4920   48.9850   -5.5770 C.3   236  ILE236      0.0276
    156  CG1       17.5650   48.3960   -6.4610 C.3   236  ILE236      0.0022
    157  CG2       16.5460   48.5070   -4.1510 C.3   236  ILE236      0.0022
    158  CD1       18.9390   48.6170   -5.9380 C.3   236  ILE236      0.0001
    159  N         11.4340   50.3400   -7.4990 N.3   239  MET239     -0.1245
    160  CA        10.9990   50.9190   -6.2320 C.3   239  MET239      0.1570
    161  C         11.4530   52.3670   -6.1710 C.2   239  MET239      0.2261
    162  O         10.6930   53.2710   -5.7640 O.2   239  MET239     -0.2867
    163  CB        11.6190   50.1340   -5.0690 C.3   239  MET239      0.0387
    164  CG        10.9850   48.7690   -4.9350 C.3   239  MET239      0.0595
    165  SD         9.1680   48.9110   -4.9080 S.3   239  MET239     -0.1393
    166  CE         8.9080   49.3890   -3.3220 C.3   239  MET239      0.0692
@<TRIPOS>BOND
     1   141   140    1
     2   141   142    1
     3   141   144    1
     4   159   160    1
     5   153   154    2
     6   153   152    1
     7   143   142    2
     8   142   151   am
     9   151   152    1
    10   144   145    1
    11   156   158    1
    12   156   155    1
    13   160   161    1
    14   160   163    1
    15   152   155    1
    16   161   162    2
    17   135   134    2
    18   134   133    1
    19   155   157    1
    20   145   146   ar
    21   145   147   ar
    22   163   164    1
    23   130   129    2
    24   164   165    1
    25   165   166    1
    26   146   148   ar
    27   132   133    1
    28   147   149   ar
    29   133   136    1
    30   119   118    2
    31   129   128    1
    32   118   117    1
    33   116   117    1
    34   136   138    1
    35   136   137    1
    36   148   150   ar
    37   149   150   ar
    38   110   111    2
    39   110   109    1
    40   117   120    1
    41   128   131    1
    42   128   127    1
    43   105   106    1
    44   105   102    1
    45   106   107    1
    46   104   103    2
    47   125   124    2
    48   109   108    1
    49   109   112    1
    50   127   124   am
    51   124   123    1
    52   103   108   am
    53   103   102    1
    54   137   139    1
    55    36    35    1
    56   114   113    1
    57    34    33    2
    58   122   123    1
    59    63    64    1
    60    33    32    1
    61   102   101    1
    62   123   126    1
    63   120   121    1
    64   113   112    1
    65   113   115    1
    66   107   101    1
    67   101    99   am
    68    35    32    1
    69    35    37    1
    70    64    67    1
    71    64    65    1
    72    32    31    1
    73    62    61    1
    74    67    68    1
    75    65    66    2
    76    99   100    2
    77    99    98    1
    78    69    68   ar
    79    69    71   ar
    80    61    59   ar
    81    61    60   ar
    82    30    29    2
    83    68    70   ar
    84    98    97    1
    85    59    57   ar
    86    60    58   ar
    87    71    73   ar
    88    29    28    1
    89    70    72   ar
    90    97    94   am
    91    25    24    2
    92    58    56   ar
    93    57    56   ar
    94    73    72   ar
    95    73    74    1
    96    56    55    1
    97    28    27    1
    98    95    94    2
    99    80    79    1
   100    80    81    1
   101    94    93    1
   102    27    21   am
   103    24    26   am
   104    24    23    1
   105    79    76    1
   106    55    52    1
   107    96    93    1
   108    21    20    1
   109    21    22    2
   110    93    92    1
   111    20    23    1
   112    20    19    1
   113    81    82    1
   114    75    76    1
   115    18    17    2
   116    76    77    1
   117    52    53    1
   118    52    51    1
   119    77    78    2
   120    53    54    2
   121    19    17   am
   122    17    16    1
   123    47    46    2
   124    90    91    1
   125    90    89    1
   126     4     3    2
   127     6     5    1
   128    51    46   am
   129    16    15    1
   130    15     9   am
   131    88    89    1
   132    88    87    1
   133    46    45    1
   134    43    42    1
   135     8     9    1
   136     8     7    1
   137     8    11    1
   138     9    10    2
   139     3     7   am
   140     3     2    1
   141     5     2    1
   142    11    12    1
   143    87    84    1
   144    45    44    1
   145    45    48    1
   146    42    39    1
   147     2     1    1
   148    83    84    1
   149    49    48    1
   150    84    85    1
   151    48    50    1
   152    12    13    1
   153    12    14    1
   154    39    38    1
   155    39    40    1
   156    85    86    2
   157    40    41    2
