@<TRIPOS>MOLECULE
tmp/1cx2B04.pdb
 205 196 0 0 0
SMALL
GASTEIGER

@<TRIPOS>ATOM
      1  N         74.7330   10.7050   18.2120 N.3    58  HIS58      -0.1241
      2  CA        75.4020   10.5090   16.9220 C.3    58  HIS58       0.1621
      3  C         76.3700    9.3580   16.9520 C.2    58  HIS58       0.2264
      4  O         76.4360    8.5880   16.0050 O.2    58  HIS58      -0.2867
      5  CB        76.1520   11.7690   16.4750 C.3    58  HIS58       0.0745
      6  CG        76.4830   11.7830   15.0130 C.ar   58  HIS58       0.0817
      7  ND1       77.4480   10.9700   14.4590 N.ar   58  HIS58      -0.2268
      8  CD2       75.9560   12.4870   13.9820 C.ar   58  HIS58       0.1154
      9  CE1       77.5040   11.1720   13.1530 C.ar   58  HIS58       0.1986
     10  NE2       76.6080   12.0860   12.8370 N.ar   58  HIS58      -0.2212
     11  N         62.8680    4.5430   13.1390 N.3    82  MET82      -0.1245
     12  CA        62.5180    5.5870   12.1810 C.3    82  MET82       0.1570
     13  C         61.4850    6.5160   12.7870 C.2    82  MET82       0.2261
     14  O         61.6410    7.7720   12.7860 O.2    82  MET82      -0.2867
     15  CB        61.9520    4.9630   10.9120 C.3    82  MET82       0.0387
     16  CG        61.6380    5.9660    9.8320 C.3    82  MET82       0.0595
     17  SD        63.0940    6.5610    8.9780 S.3    82  MET82      -0.1393
     18  CE        62.9340    8.4010    9.1210 C.3    82  MET82       0.0692
     19  N         63.1370    8.8460   15.2430 N.3    85  VAL85      -0.1245
     20  CA        63.9690    9.9190   14.6790 C.3    85  VAL85       0.1561
     21  C         63.0120   10.9900   14.2450 C.2    85  VAL85       0.2260
     22  O         63.1490   12.1420   14.6620 O.2    85  VAL85      -0.2867
     23  CB        64.8720    9.5100   13.4350 C.3    85  VAL85       0.0252
     24  CG1       65.9190    8.4370   13.8080 C.3    85  VAL85       0.0019
     25  CG2       64.0290    9.0830   12.2370 C.3    85  VAL85       0.0019
     26  N         62.7730   14.6120   16.5620 N.3    89  ARG89      -0.1245
     27  CA        63.4880   15.6120   15.7620 C.3    89  ARG89       0.1563
     28  C         62.7270   16.9100   15.4990 C.2    89  ARG89       0.2260
     29  O         63.3070   18.0150   15.5750 O.2    89  ARG89      -0.2867
     30  CB        63.9280   15.0130   14.4100 C.3    89  ARG89       0.0307
     31  CG        65.0410   15.8000   13.6800 C.3    89  ARG89       0.0489
     32  CD        66.3920   15.0270   13.5400 C.3    89  ARG89       0.2205
     33  NE        67.0120   14.6700   14.8240 N.pl3  89  ARG89      -0.0865
     34  CZ        67.7750   13.5880   15.0410 C.cat  89  ARG89       0.5346
     35  NH1       68.0590   12.7260   14.0600 N.pl3  89  ARG89       0.1354
     36  NH2       68.1910   13.3110   16.2730 N.pl3  89  ARG89       0.1354
     37  N         83.1200   12.6320    3.5750 N.3   161  GLN161     -0.1245
     38  CA        82.0780   11.6340    3.4230 C.3   161  GLN161      0.1566
     39  C         81.9320   11.1690    2.0100 C.2   161  GLN161      0.2260
     40  O         81.0860   10.3540    1.7190 O.2   161  GLN161     -0.2867
     41  CB        80.7450   12.1610    3.9290 C.3   161  GLN161      0.0367
     42  CG        80.8150   12.7310    5.3320 C.3   161  GLN161      0.0905
     43  CD        79.4670   12.8650    5.9780 C.2   161  GLN161      0.2608
     44  OE1       79.1750   13.8480    6.6340 O.2   161  GLN161     -0.2717
     45  NE2       78.6430   11.8610    5.8080 N.am  161  GLN161     -0.0878
     46  N         69.4950   10.6840    0.0090 N.3   317  TYR317     -0.1227
     47  CA        70.0660   11.9790    0.3820 C.3   317  TYR317      0.1736
     48  C         70.3120   12.1360    1.8810 C.2   317  TYR317      0.2595
     49  O         71.4450   12.3770    2.2950 O.2   317  TYR317     -0.2718
     50  CB        69.1610   13.0940   -0.1490 C.3   317  TYR317      0.0548
     51  CG        69.6450   14.5190    0.0160 C.ar  317  TYR317     -0.0200
     52  CD1       69.5020   15.1970    1.2400 C.ar  317  TYR317     -0.0009
     53  CD2       70.0440   15.2530   -1.1140 C.ar  317  TYR317     -0.0009
     54  CE1       69.7220   16.5940    1.3220 C.ar  317  TYR317      0.0417
     55  CE2       70.2590   16.6500   -1.0550 C.ar  317  TYR317      0.0417
     56  CZ        70.0890   17.3280    0.1570 C.ar  317  TYR317      0.1957
     57  OH        70.2080   18.7120    0.1650 O.3   317  TYR317     -0.2866
     58  N         69.2660   12.0330    2.6930 N.am  318  VAL318     -0.1980
     59  CA        69.4620   12.1650    4.1380 C.3   318  VAL318      0.1595
     60  C         70.2950   10.9800    4.5820 C.2   318  VAL318      0.2287
     61  O         71.2430   11.1500    5.3390 O.2   318  VAL318     -0.2864
     62  CB        68.1260   12.2230    4.9700 C.3   318  VAL318      0.0276
     63  CG1       68.4150   12.3250    6.4470 C.3   318  VAL318      0.0022
     64  CG2       67.3090   13.4090    4.5590 C.3   318  VAL318      0.0022
     65  N         73.9590   11.8940    3.7150 N.3   321  LEU321     -0.1231
     66  CA        74.3890   13.0520    4.4640 C.3   321  LEU321      0.1693
     67  C         74.3920   12.7710    5.9490 C.2   321  LEU321      0.2592
     68  O         74.9880   13.5050    6.7080 O.2   321  LEU321     -0.2718
     69  CB        73.5000   14.2450    4.1240 C.3   321  LEU321      0.0284
     70  CG        73.9730   15.6500    4.5250 C.3   321  LEU321      0.0019
     71  CD1       73.9800   16.6110    3.3270 C.3   321  LEU321      0.0001
     72  CD2       73.0620   16.1680    5.6130 C.3   321  LEU321      0.0001
     73  N         73.7770   11.6810    6.3670 N.am  322  SER322     -0.1952
     74  CA        73.7610   11.3510    7.7720 C.3   322  SER322      0.1924
     75  C         74.9550   10.4800    8.1650 C.2   322  SER322      0.2314
     76  O         75.6150   10.6980    9.1930 O.2   322  SER322     -0.2863
     77  CB        72.4610   10.6210    8.1380 C.3   322  SER322      0.2116
     78  OG        72.5010    9.2390    7.8350 O.3   322  SER322     -0.2180
     79  N         74.8860    7.0470    8.8430 N.3   324  TYR324     -0.1241
     80  CA        74.4620    6.4300   10.0640 C.3   324  TYR324      0.1605
     81  C         74.8870    5.0090   10.1970 C.2   324  TYR324      0.2264
     82  O         75.9770    4.7300   10.6880 O.2   324  TYR324     -0.2867
     83  CB        72.9510    6.5910   10.2500 C.3   324  TYR324      0.0534
     84  CG        72.5680    7.9350   10.8420 C.ar  324  TYR324     -0.0201
     85  CD1       73.5190    8.7270   11.4560 C.ar  324  TYR324     -0.0009
     86  CD2       71.2520    8.3750   10.8470 C.ar  324  TYR324     -0.0009
     87  CE1       73.1750    9.9010   12.0570 C.ar  324  TYR324      0.0417
     88  CE2       70.9010    9.5540   11.4550 C.ar  324  TYR324      0.0417
     89  CZ        71.8570   10.3250   12.0650 C.ar  324  TYR324      0.1957
     90  OH        71.5060   11.5260   12.7000 O.3   324  TYR324     -0.2866
     91  N         67.3520    4.6410    7.3700 N.3   328  LEU328     -0.1245
     92  CA        66.2390    5.5640    7.4360 C.3   328  LEU328      0.1561
     93  C         65.1560    4.9670    6.5460 C.2   328  LEU328      0.2260
     94  O         65.4770    4.1800    5.6520 O.2   328  LEU328     -0.2867
     95  CB        66.6690    6.9310    6.9220 C.3   328  LEU328      0.0270
     96  CG        67.7750    7.5910    7.7490 C.3   328  LEU328      0.0019
     97  CD1       67.9600    9.0260    7.2940 C.3   328  LEU328      0.0001
     98  CD2       67.4560    7.5370    9.2540 C.3   328  LEU328      0.0001
     99  N         71.2810   28.7670    6.3950 N.3   353  LEU353     -0.1231
    100  CA        72.1190   27.6150    6.7240 C.3   353  LEU353      0.1693
    101  C         72.2740   26.5610    5.6180 C.2   353  LEU353      0.2592
    102  O         73.1180   25.6650    5.7170 O.2   353  LEU353     -0.2718
    103  CB        71.6120   26.9470    7.9980 C.3   353  LEU353      0.0284
    104  CG        70.4860   25.9130    7.9950 C.3   353  LEU353      0.0019
    105  CD1       70.9960   24.5440    7.5860 C.3   353  LEU353      0.0001
    106  CD2       69.9500   25.8450    9.4140 C.3   353  LEU353      0.0001
    107  N         71.4580   26.6500    4.5740 N.am  354  TYR354     -0.1976
    108  CA        71.5410   25.6830    3.4900 C.3   354  TYR354      0.1639
    109  C         72.4460   26.1440    2.3660 C.2   354  TYR354      0.2290
    110  O         72.5290   25.4860    1.3130 O.2   354  TYR354     -0.2864
    111  CB        70.1530   25.3690    2.9320 C.3   354  TYR354      0.0560
    112  CG        69.8500   23.8840    2.8350 C.ar  354  TYR354     -0.0198
    113  CD1       70.2720   23.1270    1.7420 C.ar  354  TYR354     -0.0009
    114  CD2       69.1500   23.2350    3.8490 C.ar  354  TYR354     -0.0009
    115  CE1       70.0030   21.7720    1.6780 C.ar  354  TYR354      0.0417
    116  CE2       68.8850   21.8870    3.7820 C.ar  354  TYR354      0.0417
    117  CZ        69.3110   21.1670    2.7110 C.ar  354  TYR354      0.1957
    118  OH        69.0610   19.8290    2.6980 O.3   354  TYR354     -0.2866
    119  N         75.2230   25.8160    0.9130 N.3   356  TRP356     -0.1241
    120  CA        76.3440   24.9090    0.9000 C.3   356  TRP356      0.1605
    121  C         77.2550   25.0490   -0.3000 C.2   356  TRP356      0.2264
    122  O         77.5890   24.0370   -0.9600 O.2   356  TRP356     -0.2867
    123  CB        75.8710   23.4780    0.9990 C.3   356  TRP356      0.0550
    124  CG        75.1260   23.1860    2.2280 C.ar  356  TRP356      0.0003
    125  CD1       75.0330   23.9760    3.3510 C.ar  356  TRP356      0.0946
    126  CD2       74.3610   22.0050    2.4950 C.ar  356  TRP356      0.0152
    127  NE1       74.2530   23.3530    4.3000 N.ar  356  TRP356     -0.2442
    128  CE2       73.8330   22.1390    3.8080 C.ar  356  TRP356      0.0810
    129  CE3       74.0740   20.8450    1.7590 C.ar  356  TRP356      0.0012
    130  CZ2       73.0360   21.1470    4.4020 C.ar  356  TRP356      0.0191
    131  CZ3       73.2840   19.8610    2.3510 C.ar  356  TRP356      0.0001
    132  CH2       72.7760   20.0200    3.6630 C.ar  356  TRP356      0.0015
    133  N         81.8140   17.2650   13.2850 N.3   482  ARG482     -0.1245
    134  CA        81.6800   16.0780   14.1250 C.3   482  ARG482      0.1563
    135  C         82.6010   15.1090   13.3330 C.2   482  ARG482      0.2260
    136  O         82.5840   15.1350   12.0920 O.2   482  ARG482     -0.2867
    137  CB        80.2280   15.5500   14.0810 C.3   482  ARG482      0.0307
    138  CG        79.1800   16.3210   14.8460 C.3   482  ARG482      0.0489
    139  CD        77.8090   15.7770   14.4550 C.3   482  ARG482      0.2205
    140  NE        76.8320   15.7600   15.5430 N.pl3 482  ARG482     -0.0865
    141  CZ        75.5250   15.5750   15.3800 C.cat 482  ARG482      0.5346
    142  NH1       75.0260   15.3980   14.1610 N.pl3 482  ARG482      0.1354
    143  NH2       74.7170   15.5400   16.4390 N.pl3 482  ARG482      0.1354
    144  N         82.4950   14.1540    9.6080 N.3   485  ALA485     -0.1231
    145  CA        81.2510   14.7140    9.1300 C.3   485  ALA485      0.1694
    146  C         81.4990   15.7940    8.1220 C.2   485  ALA485      0.2592
    147  O         82.5560   16.3870    8.1230 O.2   485  ALA485     -0.2718
    148  CB        80.4850   15.2830   10.2860 C.3   485  ALA485      0.0304
    149  N         80.5100   16.0810    7.2850 N.am  486  ILE486     -0.1966
    150  CA        80.6190   17.1370    6.2840 C.3   486  ILE486      0.1727
    151  C         80.3990   18.4870    6.9530 C.2   486  ILE486      0.2616
    152  O         80.8260   19.5050    6.4510 O.2   486  ILE486     -0.2715
    153  CB        79.6140   16.9190    5.1450 C.3   486  ILE486      0.0290
    154  CG1       79.7470   18.0140    4.0790 C.3   486  ILE486      0.0022
    155  CG2       78.2140   16.7960    5.7120 C.3   486  ILE486      0.0023
    156  CD1       79.2330   17.6100    2.7240 C.3   486  ILE486      0.0001
    157  N         79.7010   18.4800    8.0800 N.am  487  PHE487     -0.1974
    158  CA        79.4580   19.6810    8.8710 C.3   487  PHE487      0.1639
    159  C         79.2440   19.3030   10.3210 C.2   487  PHE487      0.2290
    160  O         79.0720   18.1190   10.6460 O.2   487  PHE487     -0.2864
    161  CB        78.3030   20.5290    8.3510 C.3   487  PHE487      0.0560
    162  CG        77.2590   19.7730    7.5740 C.ar  487  PHE487     -0.0200
    163  CD1       76.4600   18.8180    8.1900 C.ar  487  PHE487     -0.0042
    164  CD2       77.0530   20.0580    6.2230 C.ar  487  PHE487     -0.0042
    165  CE1       75.4720   18.1600    7.4740 C.ar  487  PHE487     -0.0003
    166  CE2       76.0810   19.4170    5.5020 C.ar  487  PHE487     -0.0003
    167  CZ        75.2830   18.4640    6.1220 C.ar  487  PHE487     -0.0000
    168  N         75.0670   22.9110   12.5240 N.3   491  MET491     -0.1230
    169  CA        74.4320   22.8100   11.2140 C.3   491  MET491      0.1702
    170  C         73.3780   21.7330   11.2730 C.2   491  MET491      0.2592
    171  O         72.2120   21.9740   11.0410 O.2   491  MET491     -0.2718
    172  CB        75.4690   22.4090   10.1430 C.3   491  MET491      0.0401
    173  CG        74.9010   22.0330    8.7590 C.3   491  MET491      0.0596
    174  SD        74.4990   23.4940    7.7020 S.3   491  MET491     -0.1393
    175  CE        75.9530   23.6000    6.7140 C.3   491  MET491      0.0692
    176  N         73.8340   20.5380   11.6050 N.am  492  VAL492     -0.1980
    177  CA        73.0140   19.3400   11.6760 C.3   492  VAL492      0.1595
    178  C         71.8130   19.4460   12.6040 C.2   492  VAL492      0.2287
    179  O         70.7710   18.8900   12.3110 O.2   492  VAL492     -0.2864
    180  CB        73.9210   18.0850   12.0480 C.3   492  VAL492      0.0276
    181  CG1       73.0750   16.8150   12.3140 C.3   492  VAL492      0.0022
    182  CG2       74.9310   17.8170   10.9210 C.3   492  VAL492      0.0022
    183  N         69.0560   22.2930   11.1430 N.3   495  GLY495     -0.1210
    184  CA        68.5320   21.7610    9.9020 C.3   495  GLY495      0.1956
    185  C         67.7980   20.4550    9.8770 C.2   495  GLY495      0.2611
    186  O         66.9270   20.2990    9.0400 O.2   495  GLY495     -0.2717
    187  N         68.1310   19.4990   10.7310 N.am  496  ALA496     -0.1979
    188  CA        67.4070   18.2040   10.6940 C.3   496  ALA496      0.1597
    189  C         65.9090   18.3850   10.9000 C.2   496  ALA496      0.2287
    190  O         65.1130   17.8850   10.1100 O.2   496  ALA496     -0.2864
    191  CB        67.9690   17.2050   11.7280 C.3   496  ALA496      0.0319
    192  N         64.3150   20.1000    7.9670 N.3   499  SER499     -0.1202
    193  CA        64.2390   19.2520    6.7760 C.3   499  SER499      0.2020
    194  C         63.2600   18.0730    6.8410 C.2   499  SER499      0.2618
    195  O         62.9690   17.4600    5.8040 O.2   499  SER499     -0.2717
    196  CB        65.6430   18.7730    6.3230 C.3   499  SER499      0.2103
    197  OG        65.7440   18.6350    4.8910 O.3   499  SER499     -0.2182
    198  N         62.7450   17.7450    8.0270 N.am  500  LEU500     -0.1979
    199  CA        61.8040   16.6320    8.1250 C.3   500  LEU500      0.1596
    200  C         60.3410   17.0820    8.0740 C.2   500  LEU500      0.2287
    201  O         59.5140   16.4350    7.4360 O.2   500  LEU500     -0.2864
    202  CB        62.1110   15.7420    9.3350 C.3   500  LEU500      0.0297
    203  CG        63.4700   14.9960    9.3710 C.3   500  LEU500      0.0022
    204  CD1       63.5260   14.1350   10.6260 C.3   500  LEU500      0.0001
    205  CD2       63.6710   14.1360    8.1620 C.3   500  LEU500      0.0001
@<TRIPOS>BOND
     1    53    55   ar
     2    53    51   ar
     3    55    56   ar
     4   122   121    2
     5   121   120    1
     6    50    51    1
     7    50    47    1
     8    46    47    1
     9    51    52   ar
    10    56    57    1
    11    56    54   ar
    12    47    48    1
    13   120   119    1
    14   120   123    1
    15   123   124    1
    16    52    54   ar
    17   110   109    2
    18   115   113   ar
    19   115   117   ar
    20    40    39    2
    21   113   112   ar
    22   129   131   ar
    23   129   126   ar
    24    48    49    2
    25    48    58   am
    26    39    38    1
    27   124   126   ar
    28   124   125   ar
    29   131   132   ar
    30   109   108    1
    31   126   128   ar
    32    58    59    1
    33   118   117    1
    34   117   116   ar
    35   156   154    1
    36   112   111    1
    37   112   114   ar
    38   111   108    1
    39    71    70    1
    40   125   127   ar
    41    38    37    1
    42    38    41    1
    43   108   107    1
    44   132   130   ar
    45    65    66    1
    46   116   114   ar
    47   128   127   ar
    48   128   130   ar
    49    41    42    1
    50   154   153    1
    51    69    66    1
    52    69    70    1
    53    59    60    1
    54    59    62    1
    55    66    67    1
    56    70    72    1
    57    64    62    1
    58   107   101   am
    59    60    61    2
    60   197   196    1
    61    62    63    1
    62   153   155    1
    63   153   150    1
    64    42    43    1
    65   166   167   ar
    66   166   164   ar
    67   101   102    2
    68   101   100    1
    69    94    93    2
    70   195   194    2
    71    45    43   am
    72    67    73   am
    73    67    68    2
    74    43    44    2
    75   167   165   ar
    76   164   162   ar
    77   150   151    1
    78   150   149    1
    79   196   193    1
    80    73    74    1
    81    99   100    1
    82   152   151    2
    83    93    92    1
    84   175   174    1
    85   100   103    1
    86   193   194    1
    87   193   192    1
    88   194   198   am
    89    95    92    1
    90    95    96    1
    91   151   157   am
    92   149   146   am
    93    97    96    1
    94    91    92    1
    95   201   200    2
    96   165   163   ar
    97   162   163   ar
    98   162   161    1
    99   105   104    1
   100   174   173    1
   101    96    98    1
   102    74    77    1
   103    74    75    1
   104    78    77    1
   105   104   103    1
   106   104   106    1
   107   198   199    1
   108   200   199    1
   109   157   158    1
   110   146   147    2
   111   146   145    1
   112   199   202    1
   113   205   203    1
   114    75    76    2
   115   161   158    1
   116   173   172    1
   117    79    80    1
   118   158   159    1
   119    17    18    1
   120    17    16    1
   121   186   185    2
   122   145   144    1
   123   145   148    1
   124   202   203    1
   125   203   204    1
   126    16    15    1
   127   185   184    1
   128   185   187   am
   129   184   183    1
   130    80    81    1
   131    80    83    1
   132   190   189    2
   133   172   169    1
   134    81    82    2
   135    83    84    1
   136   159   160    2
   137   188   187    1
   138   188   189    1
   139   188   191    1
   140    84    86   ar
   141    84    85   ar
   142    86    88   ar
   143    15    12    1
   144   182   180    1
   145   171   170    2
   146   169   170    1
   147   169   168    1
   148   170   176   am
   149    88    89   ar
   150    85    87   ar
   151   176   177    1
   152   177   180    1
   153   177   178    1
   154   180   181    1
   155    87    89   ar
   156    89    90    1
   157   136   135    2
   158    12    13    1
   159    12    11    1
   160    25    23    1
   161   179   178    2
   162    14    13    2
   163    10     9   ar
   164    10     8   ar
   165     9     7   ar
   166   133   134    1
   167   135   134    1
   168    23    24    1
   169    23    20    1
   170    32    31    1
   171    32    33    1
   172    31    30    1
   173     8     6   ar
   174    35    34    1
   175   137   134    1
   176   137   138    1
   177   142   141    1
   178    21    22    2
   179    21    20    1
   180    30    27    1
   181   139   138    1
   182   139   140    1
   183     7     6   ar
   184    20    19    1
   185    33    34    2
   186     6     5    1
   187    34    36    1
   188   141   140    2
   189   141   143    1
   190    28    29    2
   191    28    27    1
   192    27    26    1
   193     4     3    2
   194     5     2    1
   195     2     3    1
   196     2     1    1
