@<TRIPOS>MOLECULE
tmp/1cx4A00.pdb
 144 137 0 0 0
SMALL
GASTEIGER

@<TRIPOS>ATOM
      1  N         85.9010   55.2720   -5.2880 N.3    51  ILE51      -0.1245
      2  CA        86.4190   55.9500   -6.4720 C.3    51  ILE51       0.1561
      3  C         87.0750   54.9450   -7.4170 C.2    51  ILE51       0.2260
      4  O         87.7920   54.0370   -6.9820 O.2    51  ILE51      -0.2867
      5  CB        87.4750   57.0200   -6.0860 C.3    51  ILE51       0.0252
      6  CG1       86.8100   58.1580   -5.3070 C.3    51  ILE51       0.0019
      7  CG2       88.1630   57.5500   -7.3360 C.3    51  ILE51       0.0019
      8  CD1       87.7790   59.2320   -4.8320 C.3    51  ILE51       0.0001
      9  N         94.4010   51.7510   -1.5180 N.3    70  ILE70      -0.1245
     10  CA        94.6250   52.5890   -2.6890 C.3    70  ILE70       0.1561
     11  C         95.2600   51.7530   -3.7920 C.2    70  ILE70       0.2260
     12  O         96.3190   51.1560   -3.5960 O.2    70  ILE70      -0.2867
     13  CB        95.5760   53.7690   -2.3670 C.3    70  ILE70       0.0252
     14  CG1       95.1460   54.4630   -1.0730 C.3    70  ILE70       0.0019
     15  CG2       95.5640   54.7740   -3.5060 C.3    70  ILE70       0.0019
     16  CD1       96.2080   55.3930   -0.5190 C.3    70  ILE70       0.0001
     17  N         96.5050   51.6140   -7.9370 N.3    72  VAL72      -0.1245
     18  CA        96.8170   52.3240   -9.1630 C.3    72  VAL72       0.1561
     19  C         97.0550   51.2310  -10.2020 C.2    72  VAL72       0.2260
     20  O         97.9160   50.3650  -10.0220 O.2    72  VAL72      -0.2867
     21  CB        98.0850   53.1880   -9.0330 C.3    72  VAL72       0.0252
     22  CG1       98.3340   53.9280  -10.3400 C.3    72  VAL72       0.0019
     23  CG2       97.9190   54.1970   -7.9090 C.3    72  VAL72       0.0019
     24  N         99.2730   50.8320   -3.6680 N.3    81  VAL81      -0.1245
     25  CA       100.2710   51.8260   -3.2960 C.3    81  VAL81       0.1561
     26  C        100.1130   52.4150   -1.8980 C.2    81  VAL81       0.2260
     27  O        100.8980   53.2700   -1.5020 O.2    81  VAL81      -0.2867
     28  CB       100.2890   52.9690   -4.3240 C.3    81  VAL81       0.0252
     29  CG1      100.5410   52.3960   -5.7110 C.3    81  VAL81       0.0019
     30  CG2       98.9590   53.7280   -4.2960 C.3    81  VAL81       0.0019
     31  N         94.3720   54.0570    3.8880 N.3    84  TYR84      -0.1241
     32  CA        93.9420   55.0660    4.8480 C.3    84  TYR84       0.1605
     33  C         93.3540   54.3330    6.0390 C.2    84  TYR84       0.2264
     34  O         92.6420   53.3420    5.8770 O.2    84  TYR84      -0.2867
     35  CB        92.8720   55.9670    4.2430 C.3    84  TYR84       0.0534
     36  CG        93.3500   56.8240    3.1050 C.ar   84  TYR84      -0.0201
     37  CD1       93.8970   58.0880    3.3410 C.ar   84  TYR84      -0.0009
     38  CD2       93.2480   56.3800    1.7850 C.ar   84  TYR84      -0.0009
     39  CE1       94.3260   58.8910    2.2900 C.ar   84  TYR84       0.0417
     40  CE2       93.6780   57.1740    0.7220 C.ar   84  TYR84       0.0417
     41  CZ        94.2150   58.4270    0.9850 C.ar   84  TYR84       0.1957
     42  OH        94.6470   59.2100   -0.0550 O.3    84  TYR84      -0.2866
     43  N         90.8760   62.2160    0.4760 N.3    90  PHE90      -0.1227
     44  CA        91.2790   61.8040   -0.8640 C.3    90  PHE90       0.1736
     45  C         90.3000   62.3050   -1.9140 C.2    90  PHE90       0.2596
     46  O         89.2030   62.7600   -1.5860 O.2    90  PHE90      -0.2718
     47  CB        91.4260   60.2680   -0.9400 C.3    90  PHE90       0.0547
     48  CG        90.1840   59.4980   -0.5520 C.ar   90  PHE90      -0.0202
     49  CD1       89.1360   59.3330   -1.4510 C.ar   90  PHE90      -0.0042
     50  CD2       90.0740   58.9200    0.7100 C.ar   90  PHE90      -0.0042
     51  CE1       87.9870   58.5990   -1.0950 C.ar   90  PHE90      -0.0003
     52  CE2       88.9310   58.1830    1.0760 C.ar   90  PHE90      -0.0003
     53  CZ        87.8890   58.0260    0.1700 C.ar   90  PHE90      -0.0000
     54  N         90.7180   62.2400   -3.1740 N.am   91  GLY91      -0.1942
     55  CA        89.8680   62.6790   -4.2680 C.3    91  GLY91       0.2014
     56  C         90.0590   64.1290   -4.6640 C.2    91  GLY91       0.2639
     57  O         89.2500   64.6860   -5.4080 O.2    91  GLY91      -0.2714
     58  N         91.1400   64.7410   -4.1880 N.am   92  GLU92      -0.1963
     59  CA        91.4020   66.1400   -4.4890 C.3    92  GLU92       0.1733
     60  C         92.0990   66.3770   -5.8220 C.2    92  GLU92       0.2616
     61  O         91.9490   67.4420   -6.4200 O.2    92  GLU92      -0.2715
     62  CB        92.2220   66.7860   -3.3590 C.3    92  GLU92       0.0429
     63  CG        93.6950   66.3630   -3.2570 C.3    92  GLU92       0.1163
     64  CD        93.8900   64.9620   -2.6900 C.2    92  GLU92       0.3649
     65  OE1       93.1380   64.5680   -1.7740 O.co2  92  GLU92      -0.2457
     66  OE2       94.8100   64.2580   -3.1420 O.co2  92  GLU92      -0.2457
     67  N         92.8550   65.3950   -6.2970 N.am   93  LEU93      -0.1963
     68  CA        93.5830   65.5620   -7.5500 C.3    93  LEU93       0.1728
     69  C         92.6890   65.8650   -8.7550 C.2    93  LEU93       0.2616
     70  O         92.8950   66.8620   -9.4480 O.2    93  LEU93      -0.2715
     71  CB        94.4450   64.3240   -7.8290 C.3    93  LEU93       0.0311
     72  CG        95.5120   63.9760   -6.7720 C.3    93  LEU93       0.0022
     73  CD1       96.3430   62.8110   -7.2920 C.3    93  LEU93       0.0001
     74  CD2       96.4180   65.1870   -6.4730 C.3    93  LEU93       0.0001
     75  N         91.6870   65.0250   -9.0000 N.am   94  ALA94      -0.1977
     76  CA        90.8030   65.2380  -10.1420 C.3    94  ALA94       0.1597
     77  C         90.1080   66.5920  -10.1110 C.2    94  ALA94       0.2287
     78  O         89.8810   67.1970  -11.1560 O.2    94  ALA94      -0.2864
     79  CB        89.7650   64.1250  -10.2290 C.3    94  ALA94       0.0319
     80  N         91.2000   62.8140  -14.9090 N.3   100  PRO100     -0.2102
     81  CA        90.4090   61.6730  -14.4370 C.3   100  PRO100      0.1504
     82  C         91.0240   61.1040  -13.1600 C.2   100  PRO100      0.2576
     83  O         92.2090   61.3150  -12.8980 O.2   100  PRO100     -0.2718
     84  CB        90.4720   60.6950  -15.6140 C.3   100  PRO100      0.0282
     85  CG        91.7910   61.0300  -16.2760 C.3   100  PRO100      0.0208
     86  CD        91.8180   62.5380  -16.2200 C.3   100  PRO100      0.0893
     87  N         90.2210   60.4010  -12.3650 N.am  101  ARG101     -0.1966
     88  CA        90.7070   59.8090  -11.1250 C.3   101  ARG101      0.1729
     89  C         91.9860   59.0300  -11.4090 C.2   101  ARG101      0.2616
     90  O         92.0250   58.1990  -12.3090 O.2   101  ARG101     -0.2715
     91  CB        89.6490   58.8740  -10.5330 C.3   101  ARG101      0.0348
     92  CG        88.3490   59.5600  -10.1390 C.3   101  ARG101      0.0492
     93  CD        88.5790   60.5720   -9.0360 C.3   101  ARG101      0.2205
     94  NE        87.3270   60.9640   -8.3990 N.pl3 101  ARG101     -0.0865
     95  CZ        87.2040   61.9860   -7.5640 C.cat 101  ARG101      0.5346
     96  NH1       88.2590   62.7320   -7.2640 N.pl3 101  ARG101      0.1354
     97  NH2       86.0270   62.2570   -7.0250 N.pl3 101  ARG101      0.1354
     98  N         93.0250   59.2890  -10.6260 N.am  102  ALA102     -0.1963
     99  CA        94.3140   58.6370  -10.8260 C.3   102  ALA102      0.1728
    100  C         94.4910   57.3320  -10.0670 C.2   102  ALA102      0.2616
    101  O         95.5310   56.6870  -10.1790 O.2   102  ALA102     -0.2715
    102  CB        95.4300   59.6010  -10.4540 C.3   102  ALA102      0.0334
    103  N         93.4880   56.9400   -9.2900 N.am  103  ALA103     -0.1977
    104  CA        93.5810   55.7000   -8.5290 C.3   103  ALA103      0.1597
    105  C         92.2110   55.2300   -8.0920 C.2   103  ALA103      0.2287
    106  O         91.2370   55.9790   -8.1290 O.2   103  ALA103     -0.2864
    107  CB        94.4760   55.8900   -7.2990 C.3   103  ALA103      0.0319
    108  N         89.9130   53.6940   -5.0370 N.3   105  ILE105     -0.1245
    109  CA        89.8500   53.6320   -3.5840 C.3   105  ILE105      0.1561
    110  C         88.7460   52.6530   -3.1910 C.2   105  ILE105      0.2260
    111  O         87.5850   52.8280   -3.5660 O.2   105  ILE105     -0.2867
    112  CB        89.5180   55.0070   -2.9640 C.3   105  ILE105      0.0252
    113  CG1       90.4830   56.0820   -3.4860 C.3   105  ILE105      0.0019
    114  CG2       89.5560   54.9040   -1.4460 C.3   105  ILE105      0.0019
    115  CD1       91.9240   55.9140   -3.0660 C.3   105  ILE105      0.0001
    116  N        100.3160   60.1300    2.3490 N.3   240  GLN240     -0.1245
    117  CA        99.9430   59.7310    0.9970 C.3   240  GLN240      0.1566
    118  C        100.5420   60.6720   -0.0450 C.2   240  GLN240      0.2260
    119  O        100.9870   60.2250   -1.1090 O.2   240  GLN240     -0.2867
    120  CB        98.4160   59.6750    0.8300 C.3   240  GLN240      0.0367
    121  CG        97.7310   58.4880    1.5140 C.3   240  GLN240      0.0905
    122  CD        97.6360   58.6450    3.0250 C.2   240  GLN240      0.2608
    123  OE1       97.6470   59.7620    3.5460 O.2   240  GLN240     -0.2717
    124  NE2       97.5250   57.5260    3.7330 N.am  240  GLN240     -0.0878
    125  N        104.2550   59.9270   -0.3220 N.3   243  GLU243     -0.1231
    126  CA       104.5690   58.7650   -1.1510 C.3   243  GLU243      0.1699
    127  C        104.2690   58.9600   -2.6370 C.2   243  GLU243      0.2592
    128  O        104.9370   58.3840   -3.4920 O.2   243  GLU243     -0.2718
    129  CB       103.8670   57.5210   -0.5980 C.3   243  GLU243      0.0402
    130  CG       104.4970   57.0390    0.7100 C.3   243  GLU243      0.1161
    131  CD       103.9380   55.7160    1.2040 C.2   243  GLU243      0.3649
    132  OE1      103.9710   54.7280    0.4420 O.co2 243  GLU243     -0.2457
    133  OE2      103.4710   55.6550    2.3610 O.co2 243  GLU243     -0.2457
    134  N        103.2860   59.7900   -2.9520 N.am  244  ARG244     -0.1980
    135  CA       102.9590   60.0480   -4.3470 C.3   244  ARG244      0.1597
    136  C        103.9530   61.0120   -5.0170 C.2   244  ARG244      0.2287
    137  O        104.3330   60.8200   -6.1690 O.2   244  ARG244     -0.2864
    138  CB       101.5450   60.6240   -4.4540 C.3   244  ARG244      0.0334
    139  CG       101.1540   61.0890   -5.8560 C.3   244  ARG244      0.0492
    140  CD        99.6900   61.5180   -5.9060 C.3   244  ARG244      0.2205
    141  NE        99.3840   62.6490   -5.0250 N.pl3 244  ARG244     -0.0865
    142  CZ        99.5710   63.9330   -5.3360 C.cat 244  ARG244      0.5346
    143  NH1       99.2520   64.8810   -4.4600 N.pl3 244  ARG244      0.1354
    144  NH2      100.0670   64.2740   -6.5210 N.pl3 244  ARG244      0.1354
@<TRIPOS>BOND
     1    85    86    1
     2    85    84    1
     3    86    80    1
     4    84    81    1
     5    80    81    1
     6    81    82    1
     7    82    83    2
     8    82    87   am
     9    87    88    1
    10    90    89    2
    11    89    88    1
    12    89    98   am
    13    78    77    2
    14    88    91    1
    15    99    98    1
    16    99   102    1
    17    99   100    1
    18    91    92    1
    19    22    21    1
    20    79    76    1
    21    19    20    2
    22    19    18    1
    23   101   100    2
    24    76    77    1
    25    76    75    1
    26    92    93    1
    27   100   103   am
    28    70    69    2
    29   103   104    1
    30    18    21    1
    31    18    17    1
    32    93    94    1
    33    21    23    1
    34    75    69   am
    35    69    68    1
    36   104   105    1
    37   104   107    1
    38    94    95    2
    39   106   105    2
    40    71    68    1
    41    71    72    1
    42    95    96    1
    43    95    97    1
    44    68    67    1
    45     3     4    2
    46     3     2    1
    47     7     5    1
    48    73    72    1
    49    72    74    1
    50   144   142    1
    51     2     5    1
    52     2     1    1
    53    61    60    2
    54    67    60   am
    55   137   136    2
    56     5     6    1
    57   140   139    1
    58   140   141    1
    59   139   138    1
    60    60    59    1
    61    29    28    1
    62    57    56    2
    63   142   141    2
    64   142   143    1
    65     6     8    1
    66   108   109    1
    67   136   135    1
    68    56    55    1
    69    56    58   am
    70    59    58    1
    71    59    62    1
    72   138   135    1
    73   135   134    1
    74    28    30    1
    75    28    25    1
    76    55    54    1
    77    11    12    2
    78    11    10    1
    79    24    25    1
    80   109   110    1
    81   109   112    1
    82   111   110    2
    83    15    13    1
    84   128   127    2
    85   113   115    1
    86   113   112    1
    87    62    63    1
    88    25    26    1
    89    63    64    1
    90    54    45   am
    91    66    64   ar
    92   112   114    1
    93   134   127   am
    94    64    65   ar
    95    10    13    1
    96    10     9    1
    97   127   126    1
    98    13    14    1
    99    45    46    2
   100    45    44    1
   101    26    27    2
   102    49    51   ar
   103    49    48   ar
   104   126   129    1
   105   126   125    1
   106   119   118    2
   107    51    53   ar
   108    14    16    1
   109    47    44    1
   110    47    48    1
   111    44    43    1
   112   129   130    1
   113    48    50   ar
   114    42    41    1
   115   118   117    1
   116    53    52   ar
   117   132   131   ar
   118    50    52   ar
   119   130   131    1
   120    40    41   ar
   121    40    38   ar
   122   120   117    1
   123   120   121    1
   124    41    39   ar
   125   117   116    1
   126   131   133   ar
   127   121   122    1
   128    38    36   ar
   129    39    37   ar
   130   122   123    2
   131   122   124   am
   132    36    37   ar
   133    36    35    1
   134    31    32    1
   135    35    32    1
   136    32    33    1
   137    34    33    2
