@<TRIPOS>MOLECULE
tmp/1cx4A01.pdb
 145 138 0 0 0
SMALL
GASTEIGER

@<TRIPOS>ATOM
      1  N        105.6970   66.7810   17.5300 N.3   173  ILE173     -0.1245
      2  CA       105.4980   65.3460   17.4110 C.3   173  ILE173      0.1561
      3  C        106.1480   64.6820   18.6200 C.2   173  ILE173      0.2260
      4  O        107.0880   65.2220   19.2020 O.2   173  ILE173     -0.2867
      5  CB       106.0960   64.7650   16.1020 C.3   173  ILE173      0.0252
      6  CG1      107.5730   65.1190   15.9750 C.3   173  ILE173      0.0019
      7  CG2      105.3200   65.2890   14.8990 C.3   173  ILE173      0.0019
      8  CD1      108.2210   64.5040   14.7570 C.3   173  ILE173      0.0001
      9  N        115.0340   68.7690   18.2090 N.3   192  ILE192     -0.1245
     10  CA       114.7510   67.3390   18.1830 C.3   192  ILE192      0.1561
     11  C        115.4290   66.6720   19.3760 C.2   192  ILE192      0.2260
     12  O        116.6350   66.8160   19.5650 O.2   192  ILE192     -0.2867
     13  CB       115.2950   66.6770   16.8760 C.3   192  ILE192      0.0252
     14  CG1      114.7120   67.3680   15.6410 C.3   192  ILE192      0.0019
     15  CG2      114.9530   65.1950   16.8510 C.3   192  ILE192      0.0019
     16  CD1      113.2440   67.1310   15.4420 C.3   192  ILE192      0.0001
     17  N        115.5610   62.9780   22.0310 N.3   194  MET194     -0.1245
     18  CA       115.3260   61.5510   22.0880 C.3   194  MET194      0.1570
     19  C        115.6410   61.0750   23.5070 C.2   194  MET194      0.2261
     20  O        116.6030   61.5260   24.1240 O.2   194  MET194     -0.2867
     21  CB       116.2230   60.8420   21.0740 C.3   194  MET194      0.0387
     22  CG       116.0360   59.3440   21.0310 C.3   194  MET194      0.0595
     23  SD       117.1740   58.5690   19.8890 S.3   194  MET194     -0.1393
     24  CE       116.3490   58.8780   18.3290 C.3   194  MET194      0.0692
     25  N        119.4150   65.9570   19.9900 N.3   202  ILE202     -0.1231
     26  CA       120.1970   65.3100   18.9500 C.3   202  ILE202      0.1692
     27  C        120.2380   66.1000   17.6490 C.2   202  ILE202      0.2591
     28  O        120.9980   65.7600   16.7410 O.2   202  ILE202     -0.2718
     29  CB       119.6690   63.8930   18.6280 C.3   202  ILE202      0.0266
     30  CG1      118.2260   63.9730   18.1380 C.3   202  ILE202      0.0019
     31  CG2      119.7790   62.9920   19.8560 C.3   202  ILE202      0.0020
     32  CD1      117.7230   62.6690   17.5610 C.3   202  ILE202      0.0001
     33  N        119.4310   67.1500   17.5460 N.am  203  ALA203     -0.1980
     34  CA       119.4180   67.9420   16.3260 C.3   203  ALA203      0.1597
     35  C        118.5040   69.1400   16.4190 C.2   203  ALA203      0.2287
     36  O        117.6060   69.1870   17.2610 O.2   203  ALA203     -0.2864
     37  CB       118.9840   67.0700   15.1460 C.3   203  ALA203      0.0319
     38  N        116.4090   71.9920   13.7120 N.3   205  CYS205     -0.1235
     39  CA       116.0350   72.2450   12.3340 C.3   205  CYS205      0.1677
     40  C        115.6370   73.6820   12.1270 C.2   205  CYS205      0.2270
     41  O        114.8230   74.2230   12.8760 O.2   205  CYS205     -0.2867
     42  CB       114.8790   71.3310   11.9300 C.3   205  CYS205      0.0956
     43  SG       115.3010   69.5830   11.9790 S.3   205  CYS205     -0.0801
     44  N        111.9960   67.1620    8.7350 N.3   211  PHE211     -0.1227
     45  CA       112.0360   66.1480    9.7770 C.3   211  PHE211      0.1736
     46  C        110.7020   65.4120    9.7500 C.2   211  PHE211      0.2596
     47  O        109.7400   65.8800    9.1420 O.2   211  PHE211     -0.2718
     48  CB       112.3020   66.7680   11.1600 C.3   211  PHE211      0.0547
     49  CG       111.2060   67.6590   11.6620 C.ar  211  PHE211     -0.0202
     50  CD1      111.1620   68.9990   11.3070 C.ar  211  PHE211     -0.0042
     51  CD2      110.2150   67.1540   12.4970 C.ar  211  PHE211     -0.0042
     52  CE1      110.1480   69.8310   11.7780 C.ar  211  PHE211     -0.0003
     53  CE2      109.1900   67.9780   12.9760 C.ar  211  PHE211     -0.0003
     54  CZ       109.1580   69.3180   12.6160 C.ar  211  PHE211     -0.0000
     55  N        110.6560   64.2490   10.3830 N.am  212  GLY212     -0.1942
     56  CA       109.4300   63.4790   10.4060 C.3   212  GLY212      0.2014
     57  C        109.3080   62.5650    9.2070 C.2   212  GLY212      0.2639
     58  O        108.2160   62.0930    8.8990 O.2   212  GLY212     -0.2714
     59  N        110.4230   62.3040    8.5340 N.am  213  GLU213     -0.1963
     60  CA       110.4150   61.4430    7.3570 C.3   213  GLU213      0.1733
     61  C        110.8110   60.0020    7.6850 C.2   213  GLU213      0.2616
     62  O        110.4220   59.0720    6.9790 O.2   213  GLU213     -0.2715
     63  CB       111.3720   61.9930    6.2810 C.3   213  GLU213      0.0429
     64  CG       112.8440   61.5300    6.3940 C.3   213  GLU213      0.1163
     65  CD       113.5840   62.0900    7.6170 C.2   213  GLU213      0.3649
     66  OE1      113.0330   62.9440    8.3420 O.co2 213  GLU213     -0.2457
     67  OE2      114.7330   61.6820    7.8510 O.co2 213  GLU213     -0.2457
     68  N        111.5830   59.8210    8.7520 N.am  214  LEU214     -0.1963
     69  CA       112.0460   58.4940    9.1460 C.3   214  LEU214      0.1728
     70  C        110.9100   57.4960    9.3970 C.2   214  LEU214      0.2616
     71  O        110.9760   56.3500    8.9460 O.2   214  LEU214     -0.2715
     72  CB       112.9380   58.6030   10.3900 C.3   214  LEU214      0.0311
     73  CG       113.5880   57.3100   10.8850 C.3   214  LEU214      0.0022
     74  CD1      114.5240   56.7500    9.8190 C.3   214  LEU214      0.0001
     75  CD2      114.3510   57.5910   12.1670 C.3   214  LEU214      0.0001
     76  N        109.8680   57.9280   10.1040 N.am  215  ALA215     -0.1977
     77  CA       108.7300   57.0490   10.3920 C.3   215  ALA215      0.1597
     78  C        107.9640   56.6580    9.1250 C.2   215  ALA215      0.2287
     79  O        107.4610   55.5440    9.0150 O.2   215  ALA215     -0.2864
     80  CB       107.7860   57.7220   11.3660 C.3   215  ALA215      0.0319
     81  N        107.0450   53.9590   14.4210 N.3   221  PRO221     -0.2102
     82  CA       106.5850   55.1290   15.1800 C.3   221  PRO221      0.1504
     83  C        107.7020   56.1820   15.1780 C.2   221  PRO221      0.2576
     84  O        108.8460   55.8690   14.8390 O.2   221  PRO221     -0.2718
     85  CB       106.3520   54.5680   16.5900 C.3   221  PRO221      0.0282
     86  CG       106.2430   53.0700   16.3840 C.3   221  PRO221      0.0208
     87  CD       107.2480   52.8020   15.3090 C.3   221  PRO221      0.0893
     88  N        107.3760   57.4150   15.5590 N.am  222  ARG222     -0.1966
     89  CA       108.3690   58.4880   15.6100 C.3   222  ARG222      0.1729
     90  C        109.5520   58.0600   16.4870 C.2   222  ARG222      0.2616
     91  O        109.3630   57.5860   17.6080 O.2   222  ARG222     -0.2715
     92  CB       107.7470   59.7540   16.1940 C.3   222  ARG222      0.0348
     93  CG       106.5350   60.2730   15.4380 C.3   222  ARG222      0.0492
     94  CD       106.8770   60.6120   13.9910 C.3   222  ARG222      0.2205
     95  NE       105.8750   61.4930   13.3970 N.pl3 222  ARG222     -0.0865
     96  CZ       105.9280   61.9490   12.1480 C.cat 222  ARG222      0.5346
     97  NH1      106.9380   61.6100   11.3550 N.pl3 222  ARG222      0.1354
     98  NH2      104.9620   62.7300   11.6840 N.pl3 222  ARG222      0.1354
     99  N        110.7680   58.2220   15.9790 N.am  223  ALA223     -0.1963
    100  CA       111.9540   57.8460   16.7410 C.3   223  ALA223      0.1728
    101  C        112.3820   58.9230   17.7380 C.2   223  ALA223      0.2616
    102  O        113.2480   58.6820   18.5730 O.2   223  ALA223     -0.2715
    103  CB       113.1040   57.5410   15.8000 C.3   223  ALA223      0.0334
    104  N        111.7770   60.1030   17.6670 N.am  224  ALA224     -0.1977
    105  CA       112.1590   61.1770   18.5730 C.3   224  ALA224      0.1597
    106  C        111.0810   62.2340   18.6800 C.2   224  ALA224      0.2287
    107  O        110.1360   62.2430   17.8910 O.2   224  ALA224     -0.2864
    108  CB       113.4610   61.8180   18.0910 C.3   224  ALA224      0.0319
    109  N        121.8800   59.1270   10.7490 N.3   260  TYR260     -0.1241
    110  CA       121.1780   59.0380   12.0210 C.3   260  TYR260      0.1605
    111  C        121.7470   57.9030   12.8560 C.2   260  TYR260      0.2264
    112  O        121.9100   58.0390   14.0700 O.2   260  TYR260     -0.2867
    113  CB       119.6800   58.7870   11.8190 C.3   260  TYR260      0.0534
    114  CG       118.8980   59.8910   11.1310 C.ar  260  TYR260     -0.0201
    115  CD1      119.3260   61.2210   11.1640 C.ar  260  TYR260     -0.0009
    116  CD2      117.6810   59.6060   10.5050 C.ar  260  TYR260     -0.0009
    117  CE1      118.5540   62.2400   10.5900 C.ar  260  TYR260      0.0417
    118  CE2      116.9060   60.6060    9.9370 C.ar  260  TYR260      0.0417
    119  CZ       117.3390   61.9190    9.9830 C.ar  260  TYR260      0.1957
    120  OH       116.5330   62.8970    9.4480 O.3   260  TYR260     -0.2866
    121  N        125.3610   58.7370   14.2760 N.3   263  GLN263     -0.1231
    122  CA       125.2450   59.7020   15.3540 C.3   263  GLN263      0.1698
    123  C        124.7860   59.0730   16.6630 C.2   263  GLN263      0.2592
    124  O        125.3720   59.3330   17.7120 O.2   263  GLN263     -0.2718
    125  CB       124.2880   60.8350   14.9720 C.3   263  GLN263      0.0381
    126  CG       123.9830   61.7810   16.1340 C.3   263  GLN263      0.0905
    127  CD       123.0250   62.8920   15.7630 C.2   263  GLN263      0.2608
    128  OE1      121.9760   62.6470   15.1690 O.2   263  GLN263     -0.2717
    129  NE2      123.3770   64.1240   16.1210 N.am  263  GLN263     -0.0878
    130  N        123.7470   58.2460   16.6060 N.am  264  LEU264     -0.1980
    131  CA       123.2250   57.6260   17.8190 C.3   264  LEU264      0.1596
    132  C        124.2040   56.6460   18.4500 C.2   264  LEU264      0.2287
    133  O        124.3620   56.6190   19.6690 O.2   264  LEU264     -0.2864
    134  CB       121.8950   56.9210   17.5300 C.3   264  LEU264      0.0297
    135  CG       120.7310   57.8220   17.1080 C.3   264  LEU264      0.0022
    136  CD1      119.5320   56.9580   16.7500 C.3   264  LEU264      0.0001
    137  CD2      120.3840   58.7890   18.2220 C.3   264  LEU264      0.0001
    138  N        116.5910   52.2560   14.5020 N.3   274  ILE274     -0.1245
    139  CA       115.7660   53.1940   13.7530 C.3   274  ILE274      0.1561
    140  C        115.6400   52.7030   12.3140 C.2   274  ILE274      0.2260
    141  O        114.9660   53.3190   11.4900 O.2   274  ILE274     -0.2867
    142  CB       116.3290   54.6200   13.8720 C.3   274  ILE274      0.0252
    143  CG1      117.5940   54.6550   13.0140 C.3   274  ILE274      0.0019
    144  CG2      116.5880   55.1410   15.2790 C.3   274  ILE274      0.0019
    145  CD1      118.1750   56.0350   12.8470 C.3   274  ILE274      0.0001
@<TRIPOS>BOND
     1    63    64    1
     2    63    60    1
     3    64    65    1
     4    62    61    2
     5    60    61    1
     6    60    59    1
     7    65    67   ar
     8    65    66   ar
     9    61    68   am
    10    59    57   am
    11    44    45    1
    12    68    69    1
    13    58    57    2
    14    71    70    2
    15    79    78    2
    16    78    77    1
    17    47    46    2
    18    69    70    1
    19    69    72    1
    20    57    56    1
    21    70    76   am
    22   120   119    1
    23    46    45    1
    24    46    55   am
    25    45    48    1
    26    74    73    1
    27   118   119   ar
    28   118   116   ar
    29   119   117   ar
    30    76    77    1
    31    55    56    1
    32    72    73    1
    33    77    80    1
    34   116   114   ar
    35   117   115   ar
    36   109   110    1
    37    73    75    1
    38   114   115   ar
    39   114   113    1
    40    48    49    1
    41    50    49   ar
    42    50    52   ar
    43    97    96    1
    44   141   140    2
    45    49    51   ar
    46    98    96    1
    47    52    54   ar
    48   113   110    1
    49    42    43    1
    50    42    39    1
    51   110   111    1
    52    40    39    1
    53    40    41    2
    54    96    95    2
    55   140   139    1
    56    39    38    1
    57    51    53   ar
    58    54    53   ar
    59   145   143    1
    60   111   112    2
    61   143   142    1
    62    95    94    1
    63   139   142    1
    64   139   138    1
    65   142   144    1
    66    94    93    1
    67   121   122    1
    68    81    82    1
    69    81    87    1
    70     8     6    1
    71    84    83    2
    72     7     5    1
    73   125   122    1
    74   125   126    1
    75    37    34    1
    76   128   127    2
    77    83    82    1
    78    83    88   am
    79    82    85    1
    80    87    86    1
    81   122   123    1
    82    93    92    1
    83    16    14    1
    84    88    89    1
    85    89    92    1
    86    89    90    1
    87    14    13    1
    88   127   129   am
    89   127   126    1
    90   103   100    1
    91     6     5    1
    92    99    90   am
    93    99   100    1
    94     5     2    1
    95    34    35    1
    96    34    33    1
    97    86    85    1
    98    35    36    2
    99    90    91    2
   100   130   123   am
   101   130   131    1
   102   123   124    2
   103   100   101    1
   104    28    27    2
   105   136   135    1
   106    15    13    1
   107    13    10    1
   108   135   134    1
   109   135   137    1
   110     2     1    1
   111     2     3    1
   112   134   131    1
   113    33    27   am
   114    32    30    1
   115    27    26    1
   116   104   101   am
   117   104   105    1
   118   101   102    2
   119   131   132    1
   120   107   106    2
   121   108   105    1
   122    30    29    1
   123    10     9    1
   124    10    11    1
   125    24    23    1
   126   132   133    2
   127   105   106    1
   128     3     4    2
   129    29    26    1
   130    29    31    1
   131    26    25    1
   132    11    12    2
   133    23    22    1
   134    22    21    1
   135    21    18    1
   136    17    18    1
   137    18    19    1
   138    19    20    2
