@<TRIPOS>MOLECULE
tmp/1cx9A00.pdb
 150 141 0 0 0
SMALL
GASTEIGER

@<TRIPOS>ATOM
      1  N         45.2800   33.1110   16.0970 N.3    21  PHE21      -0.1241
      2  CA        46.5330   32.7510   16.7550 C.3    21  PHE21       0.1605
      3  C         47.5150   33.9120   16.6980 C.2    21  PHE21       0.2264
      4  O         47.5490   34.6570   15.7260 O.2    21  PHE21      -0.2867
      5  CB        47.1750   31.5130   16.1090 C.3    21  PHE21       0.0534
      6  CG        48.6010   31.2620   16.5550 C.ar   21  PHE21      -0.0203
      7  CD1       49.6720   31.9050   15.9260 C.ar   21  PHE21      -0.0042
      8  CD2       48.8780   30.3850   17.6010 C.ar   21  PHE21      -0.0042
      9  CE1       50.9810   31.6740   16.3320 C.ar   21  PHE21      -0.0003
     10  CE2       50.1910   30.1470   18.0100 C.ar   21  PHE21      -0.0003
     11  CZ        51.2380   30.7930   17.3730 C.ar   21  PHE21      -0.0000
     12  N         44.4290   31.0930   20.7800 N.3    48  GLU48      -0.1245
     13  CA        45.5120   30.1320   20.5950 C.3    48  GLU48       0.1567
     14  C         46.7600   30.9900   20.6980 C.2    48  GLU48       0.2260
     15  O         47.0190   31.8360   19.8340 O.2    48  GLU48      -0.2867
     16  CB        45.4330   29.4570   19.2240 C.3    48  GLU48       0.0388
     17  CG        45.8850   27.9980   19.2070 C.3    48  GLU48       0.1160
     18  CD        45.1170   27.1310   20.1840 C.2    48  GLU48       0.3649
     19  OE1       43.9170   26.8740   19.9640 O.co2  48  GLU48      -0.2457
     20  OE2       45.7180   26.6920   21.1800 O.co2  48  GLU48      -0.2457
     21  N         57.5400   23.5710   13.2000 N.3    58  ALA58      -0.1231
     22  CA        56.2790   23.2870   12.5320 C.3    58  ALA58       0.1694
     23  C         55.6540   24.6050   12.0810 C.2    58  ALA58       0.2592
     24  O         54.4840   24.6470   11.6930 O.2    58  ALA58      -0.2718
     25  CB        55.3310   22.5230   13.4600 C.3    58  ALA58       0.0304
     26  N         56.4630   25.6620   12.0670 N.am   59  ASP59      -0.1974
     27  CA        55.9900   26.9900   11.6870 C.3    59  ASP59       0.1709
     28  C         56.6340   27.5600   10.4280 C.2    59  ASP59       0.2293
     29  O         57.8400   27.4240   10.2130 O.2    59  ASP59      -0.2864
     30  CB        56.1940   27.9820   12.8440 C.3    59  ASP59       0.1436
     31  CG        55.1840   27.7950   13.9750 C.2    59  ASP59       0.3671
     32  OD1       54.0220   28.2270   13.8270 O.co2  59  ASP59      -0.2456
     33  OD2       55.5580   27.2350   15.0230 O.co2  59  ASP59      -0.2456
     34  N         55.1430   33.1280   11.2400 N.3    63  ILE63      -0.1245
     35  CA        55.2260   32.9020   12.6820 C.3    63  ILE63       0.1561
     36  C         56.6810   32.7780   13.1460 C.2    63  ILE63       0.2260
     37  O         57.0090   33.0800   14.2930 O.2    63  ILE63      -0.2867
     38  CB        54.3780   31.6670   13.0850 C.3    63  ILE63       0.0252
     39  CG1       52.9280   31.8960   12.6540 C.3    63  ILE63       0.0019
     40  CG2       54.3930   31.4710   14.5900 C.3    63  ILE63       0.0019
     41  CD1       52.0100   30.7110   12.8530 C.3    63  ILE63       0.0001
     42  N         50.1410   27.0950   22.2520 N.3    99  LEU99      -0.1245
     43  CA        50.8350   26.3500   21.2050 C.3    99  LEU99       0.1561
     44  C         52.2270   26.2830   21.7940 C.2    99  LEU99       0.2260
     45  O         52.9250   27.2960   21.9080 O.2    99  LEU99      -0.2867
     46  CB        50.8560   27.0830   19.8590 C.3    99  LEU99       0.0270
     47  CG        51.5850   26.3340   18.7270 C.3    99  LEU99       0.0019
     48  CD1       53.1020   26.4470   18.8580 C.3    99  LEU99       0.0001
     49  CD2       51.1660   24.8680   18.6990 C.3    99  LEU99       0.0001
     50  N         48.6050   22.4110   23.2120 N.3   126  LEU126     -0.1245
     51  CA        48.9550   21.6240   22.0420 C.3   126  LEU126      0.1561
     52  C         50.4760   21.7110   21.9530 C.2   126  LEU126      0.2260
     53  O         51.0310   22.8110   21.9510 O.2   126  LEU126     -0.2867
     54  CB        48.3280   22.2510   20.7990 C.3   126  LEU126      0.0270
     55  CG        48.9080   21.9640   19.4130 C.3   126  LEU126      0.0019
     56  CD1       48.9100   20.4680   19.1290 C.3   126  LEU126      0.0001
     57  CD2       48.0860   22.7260   18.3780 C.3   126  LEU126      0.0001
     58  N         53.2010   21.0600   19.6370 N.3   128  ALA128     -0.1245
     59  CA        53.4050   20.8370   18.2140 C.3   128  ALA128      0.1562
     60  C         54.2630   19.6460   17.8390 C.2   128  ALA128      0.2260
     61  O         53.9590   18.9460   16.8570 O.2   128  ALA128     -0.2867
     62  CB        53.9330   22.1100   17.5530 C.3   128  ALA128      0.0290
     63  N         46.4360   16.7430   17.2730 N.3   152  ILE152     -0.1245
     64  CA        46.3090   17.0830   15.8640 C.3   152  ILE152      0.1561
     65  C         45.8650   15.8790   15.0400 C.2   152  ILE152      0.2260
     66  O         46.4540   14.7970   15.1140 O.2   152  ILE152     -0.2867
     67  CB        47.6450   17.6600   15.2620 C.3   152  ILE152      0.0252
     68  CG1       47.8720   19.0990   15.7290 C.3   152  ILE152      0.0019
     69  CG2       47.6270   17.6210   13.7350 C.3   152  ILE152      0.0019
     70  CD1       49.0770   19.7690   15.1000 C.3   152  ILE152      0.0001
     71  N         42.2420   19.3330   16.8180 N.3   174  TYR174     -0.1241
     72  CA        42.8520   20.2320   15.8420 C.3   174  TYR174      0.1605
     73  C         42.8820   19.5480   14.4870 C.2   174  TYR174      0.2264
     74  O         43.7260   18.6860   14.2430 O.2   174  TYR174     -0.2867
     75  CB        44.2710   20.6240   16.2570 C.3   174  TYR174      0.0534
     76  CG        44.8360   21.8320   15.5250 C.ar  174  TYR174     -0.0201
     77  CD1       45.1760   21.7670   14.1790 C.ar  174  TYR174     -0.0009
     78  CD2       45.0630   23.0250   16.1930 C.ar  174  TYR174     -0.0009
     79  CE1       45.7370   22.8650   13.5170 C.ar  174  TYR174      0.0417
     80  CE2       45.6180   24.1180   15.5410 C.ar  174  TYR174      0.0417
     81  CZ        45.9590   24.0320   14.2050 C.ar  174  TYR174      0.1957
     82  OH        46.5640   25.1070   13.5820 O.3   174  TYR174     -0.2866
     83  N         52.7430   25.9870    9.1480 N.3   182  THR182     -0.1203
     84  CA        51.7900   27.0890    9.3200 C.3   182  THR182      0.1997
     85  C         52.0310   28.1910    8.2940 C.2   182  THR182      0.2657
     86  O         53.0760   28.8370    8.3120 O.2   182  THR182     -0.2713
     87  CB        51.8920   27.7190   10.7440 C.3   182  THR182      0.1784
     88  OG1       53.1580   28.3690   10.8960 O.3   182  THR182     -0.2211
     89  CG2       51.7560   26.6570   11.8200 C.3   182  THR182      0.0376
     90  N         51.0630   28.4230    7.4140 N.am  183  GLY183     -0.1718
     91  CA        51.2390   29.4560    6.4080 C.2   183  GLY183      0.1480
     92  C         49.9880   29.8270    5.6380 C.2   183  GLY183      0.2820
     93  O         49.3020   28.9530    5.1020 O.2   183  GLY183     -0.2669
     94  N         49.6960   31.1280    5.5900 N.am  184  ALA184     -0.1943
     95  CA        48.5310   31.6590    4.8700 C.3   184  ALA184      0.1600
     96  C         48.8190   31.6880    3.3630 C.2   184  ALA184      0.2287
     97  O         47.9180   31.8870    2.5440 O.2   184  ALA184     -0.2864
     98  CB        48.1880   33.0670    5.3790 C.3   184  ALA184      0.0319
     99  N         45.3210   25.8840    9.7050 N.3   209  PHE209     -0.1227
    100  CA        46.3160   25.9070    8.6170 C.3   209  PHE209      0.1736
    101  C         45.7170   26.4370    7.3100 C.2   209  PHE209      0.2596
    102  O         44.7490   25.8740    6.7740 O.2   209  PHE209     -0.2718
    103  CB        46.9930   24.5410    8.3600 C.3   209  PHE209      0.0547
    104  CG        48.1490   24.2220    9.2980 C.ar  209  PHE209     -0.0202
    105  CD1       49.0880   23.2480    8.9490 C.ar  209  PHE209     -0.0042
    106  CD2       48.2650   24.8420   10.5470 C.ar  209  PHE209     -0.0042
    107  CE1       50.1210   22.8890    9.8330 C.ar  209  PHE209     -0.0003
    108  CE2       49.2950   24.4880   11.4380 C.ar  209  PHE209     -0.0003
    109  CZ        50.2180   23.5110   11.0800 C.ar  209  PHE209     -0.0000
    110  N         46.2810   27.5480    6.8350 N.am  210  GLY210     -0.1942
    111  CA        45.8270   28.1650    5.6000 C.3   210  GLY210      0.2014
    112  C         44.5380   28.9770    5.6310 C.2   210  GLY210      0.2638
    113  O         44.2690   29.7020    4.6660 O.2   210  GLY210     -0.2714
    114  N         43.7650   28.8760    6.7220 N.am  211  ILE211     -0.1977
    115  CA        42.4880   29.5970    6.8840 C.3   211  ILE211      0.1596
    116  C         42.7300   31.1130    7.0000 C.2   211  ILE211      0.2287
    117  O         43.0240   31.6220    8.0810 O.2   211  ILE211     -0.2864
    118  CB        41.7190   29.1150    8.1600 C.3   211  ILE211      0.0276
    119  CG1       41.5390   27.5910    8.1810 C.3   211  ILE211      0.0022
    120  CG2       40.3920   29.8120    8.2710 C.3   211  ILE211      0.0022
    121  CD1       40.5770   27.0270    7.1790 C.3   211  ILE211      0.0001
    122  N         40.6750   27.9130   13.0570 N.3   229  ILE229     -0.1231
    123  CA        41.8170   28.5900   13.6660 C.3   229  ILE229      0.1692
    124  C         42.5880   29.2910   12.5470 C.2   229  ILE229      0.2593
    125  O         42.8680   28.6950   11.5070 O.2   229  ILE229     -0.2718
    126  CB        42.7560   27.5650   14.3510 C.3   229  ILE229      0.0266
    127  CG1       42.0710   26.9730   15.5770 C.3   229  ILE229      0.0019
    128  CG2       44.0950   28.2080   14.7350 C.3   229  ILE229      0.0020
    129  CD1       42.7720   25.7470   16.1130 C.3   229  ILE229      0.0001
    130  N         42.9730   30.5370   12.7890 N.am  230  SER230     -0.1938
    131  CA        43.7160   31.3310   11.8140 C.3   230  SER230      0.2055
    132  C         44.8800   32.0620   12.4850 C.2   230  SER230      0.2644
    133  O         44.6650   32.8860   13.3750 O.2   230  SER230     -0.2714
    134  CB        42.7750   32.3570   11.1700 C.3   230  SER230      0.2130
    135  OG        43.4790   33.2490   10.3300 O.3   230  SER230     -0.2179
    136  N         46.0960   31.8300   11.9990 N.am  231  GLY231     -0.1939
    137  CA        47.2540   32.4780   12.5890 C.3   231  GLY231      0.2014
    138  C         48.0920   33.3760   11.7070 C.2   231  GLY231      0.2640
    139  O         48.2160   34.5610   11.9880 O.2   231  GLY231     -0.2714
    140  N         48.6940   32.8300   10.6580 N.am  232  SER232     -0.1935
    141  CA        49.5290   33.6480    9.7720 C.3   232  SER232      0.2055
    142  C         48.8190   34.8820    9.1970 C.2   232  SER232      0.2642
    143  O         49.4590   35.9040    8.9450 O.2   232  SER232     -0.2714
    144  CB        50.1260   32.8020    8.6370 C.3   232  SER232      0.2130
    145  OG        50.9690   31.7740    9.1450 O.3   232  SER232     -0.2179
    146  N         47.5050   34.7890    8.9900 N.am  233  ALA233     -0.1977
    147  CA        46.7340   35.9160    8.4630 C.3   233  ALA233      0.1597
    148  C         46.6560   37.0420    9.4900 C.2   233  ALA233      0.2287
    149  O         46.5510   38.2200    9.1450 O.2   233  ALA233     -0.2864
    150  CB        45.3390   35.4640    8.0760 C.3   233  ALA233      0.0319
@<TRIPOS>BOND
     1    97    96    2
     2    96    95    1
     3   113   112    2
     4    95    98    1
     5    95    94    1
     6    93    92    2
     7    94    92   am
     8   111   112    1
     9   111   110    1
    10   112   114   am
    11    92    91    1
    12    91    90    2
    13   114   115    1
    14   102   101    2
    15   110   101   am
    16   115   116    1
    17   115   118    1
    18   116   117    2
    19   121   119    1
    20   101   100    1
    21    90    85    1
    22   150   147    1
    23   118   119    1
    24   118   120    1
    25    85    86    2
    26    85    84    1
    27   103   100    1
    28   103   104    1
    29   147   146    1
    30   147   148    1
    31   100    99    1
    32   144   145    1
    33   144   141    1
    34   143   142    2
    35   105   104   ar
    36   105   107   ar
    37   146   142   am
    38   149   148    2
    39    83    84    1
    40   142   141    1
    41   104   106   ar
    42    84    87    1
    43   141   140    1
    44   107   109   ar
    45    29    28    2
    46   135   134    1
    47    28    27    1
    48   106   108   ar
    49   140   138   am
    50    87    88    1
    51    87    89    1
    52   109   108   ar
    53   134   131    1
    54    34    35    1
    55   125   124    2
    56    27    26    1
    57    27    30    1
    58    24    23    2
    59   138   139    2
    60   138   137    1
    61   131   132    1
    62   131   130    1
    63   136   132   am
    64   136   137    1
    65    26    23   am
    66    23    22    1
    67   132   133    2
    68    22    21    1
    69    22    25    1
    70   124   130   am
    71   124   123    1
    72    39    41    1
    73    39    38    1
    74    35    38    1
    75    35    36    1
    76    30    31    1
    77   122   123    1
    78    38    40    1
    79    36    37    2
    80    79    77   ar
    81    79    81   ar
    82    82    81    1
    83   123   126    1
    84    69    67    1
    85    32    31   ar
    86    31    33   ar
    87    77    76   ar
    88    81    80   ar
    89    74    73    2
    90   126   128    1
    91   126   127    1
    92    73    72    1
    93    65    66    2
    94    65    64    1
    95    70    68    1
    96    67    68    1
    97    67    64    1
    98    76    78   ar
    99    76    75    1
   100    80    78   ar
   101   127   129    1
   102     4     3    2
   103    72    75    1
   104    72    71    1
   105    64    63    1
   106     7     9   ar
   107     7     6   ar
   108     1     2    1
   109     5     6    1
   110     5     2    1
   111     9    11   ar
   112     6     8   ar
   113     3     2    1
   114    61    60    2
   115    11    10   ar
   116    62    59    1
   117     8    10   ar
   118    60    59    1
   119    59    58    1
   120    57    55    1
   121    49    47    1
   122    47    48    1
   123    47    46    1
   124    56    55    1
   125    17    16    1
   126    17    18    1
   127    16    13    1
   128    55    54    1
   129    15    14    2
   130    46    43    1
   131    19    18   ar
   132    18    20   ar
   133    13    14    1
   134    13    12    1
   135    54    51    1
   136    43    44    1
   137    43    42    1
   138    44    45    2
   139    53    52    2
   140    52    51    1
   141    51    50    1
