@<TRIPOS>MOLECULE
tmp/1cxeA03.pdb
 237 233 0 0 0
SMALL
GASTEIGER

@<TRIPOS>ATOM
      1  N         35.0670   93.1120   57.9180 N.3    89  TYR89      -0.1241
      2  CA        36.3760   93.7190   57.9570 C.3    89  TYR89       0.1605
      3  C         36.2420   95.2010   58.2640 C.2    89  TYR89       0.2264
      4  O         36.2010   96.0520   57.3670 O.2    89  TYR89      -0.2867
      5  CB        37.1680   93.4490   56.6750 C.3    89  TYR89       0.0534
      6  CG        37.8580   92.0890   56.6550 C.ar   89  TYR89      -0.0201
      7  CD1       38.7290   91.7080   57.6680 C.ar   89  TYR89      -0.0009
      8  CD2       37.6350   91.1940   55.6180 C.ar   89  TYR89      -0.0009
      9  CE1       39.3590   90.4720   57.6460 C.ar   89  TYR89       0.0417
     10  CE2       38.2570   89.9600   55.5860 C.ar   89  TYR89       0.0417
     11  CZ        39.1170   89.6040   56.6010 C.ar   89  TYR89       0.1957
     12  OH        39.7240   88.3750   56.5610 O.3    89  TYR89      -0.2866
     13  N         32.7920   84.9480   47.7150 N.3    97  TYR97      -0.1227
     14  CA        32.2880   84.8990   46.3470 C.3    97  TYR97       0.1736
     15  C         33.4170   84.6840   45.3350 C.2    97  TYR97       0.2595
     16  O         33.1930   84.1690   44.2370 O.2    97  TYR97      -0.2718
     17  CB        31.5570   86.2090   46.0250 C.3    97  TYR97       0.0548
     18  CG        32.5120   87.3380   45.7610 C.ar   97  TYR97      -0.0200
     19  CD1       33.0580   88.0680   46.8100 C.ar   97  TYR97      -0.0009
     20  CD2       32.9590   87.6070   44.4740 C.ar   97  TYR97      -0.0009
     21  CE1       33.9820   89.0770   46.5800 C.ar   97  TYR97       0.0417
     22  CE2       33.8760   88.6120   44.2320 C.ar   97  TYR97       0.0417
     23  CZ        34.3850   89.3430   45.2890 C.ar   97  TYR97       0.1957
     24  OH        35.2970   90.3360   45.0420 O.3    97  TYR97      -0.2866
     25  N         34.6190   85.1170   45.7100 N.am   98  HIS98      -0.1975
     26  CA        35.8040   85.0390   44.8590 C.3    98  HIS98       0.1656
     27  C         36.3790   83.6240   44.6990 C.2    98  HIS98       0.2291
     28  O         37.1070   83.3510   43.7430 O.2    98  HIS98      -0.2864
     29  CB        36.9000   86.0210   45.3800 C.3    98  HIS98       0.0771
     30  CG        37.0600   86.0220   46.8710 C.ar   98  HIS98       0.0820
     31  ND1       37.7490   85.0380   47.5490 N.ar   98  HIS98      -0.2267
     32  CD2       36.6290   86.8940   47.8140 C.ar   98  HIS98       0.1154
     33  CE1       37.7410   85.3080   48.8430 C.ar   98  HIS98       0.1986
     34  NE2       37.0610   86.4240   49.0310 N.ar   98  HIS98      -0.2212
     35  N         38.5530   82.0690   46.8060 N.3   100  TYR100     -0.1227
     36  CA        39.9040   81.9150   47.3690 C.3   100  TYR100      0.1736
     37  C         40.0140   81.5470   48.8350 C.2   100  TYR100      0.2595
     38  O         41.1250   81.4520   49.3620 O.2   100  TYR100     -0.2718
     39  CB        40.7620   83.1610   47.1030 C.3   100  TYR100      0.0548
     40  CG        41.1020   83.3800   45.6490 C.ar  100  TYR100     -0.0200
     41  CD1       41.9240   82.4900   44.9650 C.ar  100  TYR100     -0.0009
     42  CD2       40.6120   84.4830   44.9610 C.ar  100  TYR100     -0.0009
     43  CE1       42.2370   82.6830   43.6250 C.ar  100  TYR100      0.0417
     44  CE2       40.9230   84.6930   43.6250 C.ar  100  TYR100      0.0417
     45  CZ        41.7420   83.7920   42.9620 C.ar  100  TYR100      0.1957
     46  OH        42.0520   83.9990   41.6330 O.3   100  TYR100     -0.2866
     47  N         38.8790   81.3560   49.4960 N.am  101  TRP101     -0.1976
     48  CA        38.8730   81.0040   50.9120 C.3   101  TRP101      0.1640
     49  C         38.3760   79.5820   51.0600 C.2   101  TRP101      0.2290
     50  O         37.2550   79.3500   51.5030 O.2   101  TRP101     -0.2864
     51  CB        37.9880   81.9720   51.6890 C.3   101  TRP101      0.0576
     52  CG        38.5500   83.3510   51.7130 C.ar  101  TRP101      0.0006
     53  CD1       39.8250   83.7210   51.3840 C.ar  101  TRP101      0.0946
     54  CD2       37.8600   84.5560   52.0630 C.ar  101  TRP101      0.0152
     55  NE1       39.9700   85.0820   51.5150 N.ar  101  TRP101     -0.2442
     56  CE2       38.7800   85.6170   51.9390 C.ar  101  TRP101      0.0810
     57  CE3       36.5540   84.8390   52.4860 C.ar  101  TRP101      0.0012
     58  CZ2       38.4370   86.9390   52.2220 C.ar  101  TRP101      0.0191
     59  CZ3       36.2180   86.1510   52.7700 C.ar  101  TRP101      0.0001
     60  CH2       37.1570   87.1850   52.6370 C.ar  101  TRP101      0.0015
     61  N         46.9090   78.3390   51.1450 N.3   140  HIS140     -0.1241
     62  CA        46.2470   78.5940   52.4140 C.3   140  HIS140      0.1621
     63  C         44.8040   78.1030   52.3800 C.2   140  HIS140      0.2264
     64  O         44.3170   77.6370   51.3480 O.2   140  HIS140     -0.2867
     65  CB        46.1790   80.1190   52.5600 C.3   140  HIS140      0.0745
     66  CG        45.5200   80.7760   51.3830 C.ar  140  HIS140      0.0817
     67  ND1       46.2240   81.2040   50.2740 N.ar  140  HIS140     -0.2268
     68  CD2       44.2120   80.9750   51.0950 C.ar  140  HIS140      0.1154
     69  CE1       45.3780   81.6740   49.3730 C.ar  140  HIS140      0.1986
     70  NE2       44.1500   81.5380   49.8430 N.ar  140  HIS140     -0.2212
     71  N         40.8700   83.1090   56.2170 N.3   143  PRO143     -0.2116
     72  CA        41.2810   84.0290   57.2770 C.3   143  PRO143      0.1372
     73  C         41.0730   83.4090   58.6460 C.2   143  PRO143      0.2244
     74  O         39.9910   82.9130   58.9640 O.2   143  PRO143     -0.2868
     75  CB        40.3260   85.2200   57.1060 C.3   143  PRO143      0.0268
     76  CG        39.8560   85.1380   55.6960 C.3   143  PRO143      0.0207
     77  CD        39.7950   83.6780   55.3820 C.3   143  PRO143      0.0892
     78  N         56.4180   90.7950   52.9670 N.3   183  PHE183     -0.1241
     79  CA        56.8650   90.7110   51.5890 C.3   183  PHE183      0.1605
     80  C         58.3000   91.2020   51.4780 C.2   183  PHE183      0.2264
     81  O         58.7830   91.4710   50.3830 O.2   183  PHE183     -0.2867
     82  CB        55.9660   91.5400   50.6800 C.3   183  PHE183      0.0534
     83  CG        54.5240   91.1260   50.7080 C.ar  183  PHE183     -0.0203
     84  CD1       54.0760   90.0660   49.9400 C.ar  183  PHE183     -0.0042
     85  CD2       53.6050   91.8050   51.4930 C.ar  183  PHE183     -0.0042
     86  CE1       52.7410   89.6850   49.9620 C.ar  183  PHE183     -0.0003
     87  CE2       52.2650   91.4280   51.5140 C.ar  183  PHE183     -0.0003
     88  CZ        51.8380   90.3650   50.7540 C.ar  183  PHE183     -0.0000
     89  N         49.9820   85.1860   54.4680 N.3   194  LEU194     -0.1231
     90  CA        49.6600   86.2410   53.5330 C.3   194  LEU194      0.1693
     91  C         48.4650   86.9010   54.1940 C.2   194  LEU194      0.2592
     92  O         47.3890   86.3050   54.2640 O.2   194  LEU194     -0.2718
     93  CB        49.1880   85.6390   52.2120 C.3   194  LEU194      0.0284
     94  CG        50.1850   85.5680   51.0710 C.3   194  LEU194      0.0019
     95  CD1       49.4350   85.2790   49.7850 C.3   194  LEU194      0.0001
     96  CD2       50.9330   86.8820   50.9820 C.3   194  LEU194      0.0001
     97  N         48.6520   88.1120   54.7060 N.am  195  TYR195     -0.1962
     98  CA        47.5670   88.8050   55.3820 C.3   195  TYR195      0.1771
     99  C         47.1520   87.9340   56.5690 C.2   195  TYR195      0.2620
    100  O         47.9950   87.5230   57.3640 O.2   195  TYR195     -0.2715
    101  CB        46.4120   89.0630   54.4060 C.3   195  TYR195      0.0574
    102  CG        46.8730   89.7790   53.1470 C.ar  195  TYR195     -0.0198
    103  CD1       47.6520   90.9270   53.2370 C.ar  195  TYR195     -0.0009
    104  CD2       46.5780   89.2820   51.8720 C.ar  195  TYR195     -0.0009
    105  CE1       48.1110   91.5810   52.0990 C.ar  195  TYR195      0.0417
    106  CE2       47.0380   89.9320   50.7200 C.ar  195  TYR195      0.0417
    107  CZ        47.8030   91.0850   50.8460 C.ar  195  TYR195      0.1957
    108  OH        48.2660   91.7480   49.7250 O.3   195  TYR195     -0.2866
    109  N         45.8710   87.5990   56.6780 N.am  196  ASP196     -0.1957
    110  CA        45.4090   86.7620   57.7860 C.3   196  ASP196      0.1840
    111  C         45.0350   85.3470   57.3360 C.2   196  ASP196      0.2621
    112  O         44.3670   84.6120   58.0650 O.2   196  ASP196     -0.2715
    113  CB        44.2050   87.4160   58.4500 C.3   196  ASP196      0.1450
    114  CG        43.0870   87.6670   57.4820 C.2   196  ASP196      0.3671
    115  OD1       43.2110   87.2280   56.3210 O.co2 196  ASP196     -0.2456
    116  OD2       42.0700   88.2540   57.8760 O.co2 196  ASP196     -0.2456
    117  N         45.4340   84.9920   56.1190 N.am  197  LEU197     -0.1977
    118  CA        45.1250   83.6840   55.5560 C.3   197  LEU197      0.1596
    119  C         45.9560   82.6030   56.2070 C.2   197  LEU197      0.2287
    120  O         47.1840   82.6840   56.2280 O.2   197  LEU197     -0.2864
    121  CB        45.3700   83.6810   54.0500 C.3   197  LEU197      0.0297
    122  CG        44.5040   84.6800   53.2910 C.3   197  LEU197      0.0022
    123  CD1       44.9650   84.8290   51.8660 C.3   197  LEU197      0.0001
    124  CD2       43.0400   84.2690   53.3570 C.3   197  LEU197      0.0001
    125  N         45.3820   76.9520   36.8720 N.3   227  ARG227     -0.1245
    126  CA        45.9980   78.2350   37.1870 C.3   227  ARG227      0.1563
    127  C         46.3170   78.1550   38.6770 C.2   227  ARG227      0.2260
    128  O         45.4130   78.0290   39.5150 O.2   227  ARG227     -0.2867
    129  CB        45.1090   79.4600   36.9190 C.3   227  ARG227      0.0307
    130  CG        45.9840   80.7060   36.7920 C.3   227  ARG227      0.0489
    131  CD        45.5350   81.9630   37.5370 C.3   227  ARG227      0.2205
    132  NE        45.3900   81.8670   38.9820 N.pl3 227  ARG227     -0.0865
    133  CZ        45.5450   82.8900   39.8360 C.cat 227  ARG227      0.5346
    134  NH1       45.8870   84.0940   39.4100 N.pl3 227  ARG227      0.1354
    135  NH2       45.3740   82.6990   41.1300 N.pl3 227  ARG227      0.1354
    136  N         47.4860   79.6040   42.0790 N.3   229  ASP229     -0.1225
    137  CA        47.5030   80.8720   42.7740 C.3   229  ASP229      0.1805
    138  C         48.6680   81.0040   43.7670 C.2   229  ASP229      0.2597
    139  O         49.0530   80.0380   44.4190 O.2   229  ASP229     -0.2718
    140  CB        46.1590   81.0550   43.4790 C.3   229  ASP229      0.1424
    141  CG        46.1310   82.2560   44.3840 C.2   229  ASP229      0.3668
    142  OD1       45.8950   83.3840   43.8880 O.co2 229  ASP229     -0.2456
    143  OD2       46.2700   82.0540   45.6030 O.co2 229  ASP229     -0.2456
    144  N         49.2080   82.2200   43.8680 N.am  230  ALA230     -0.1979
    145  CA        50.2850   82.5600   44.8030 C.3   230  ALA230      0.1597
    146  C         51.5130   81.6600   44.7940 C.2   230  ALA230      0.2287
    147  O         51.9860   81.2530   45.8570 O.2   230  ALA230     -0.2864
    148  CB        49.7320   82.6710   46.2190 C.3   230  ALA230      0.0319
    149  N         54.5680   82.4020   44.2370 N.3   232  LYS232     -0.1231
    150  CA        55.7420   83.0480   44.8170 C.3   232  LYS232      0.1693
    151  C         55.7320   82.8400   46.3450 C.2   232  LYS232      0.2592
    152  O         56.7160   83.1380   47.0350 O.2   232  LYS232     -0.2718
    153  CB        55.7210   84.5440   44.4700 C.3   232  LYS232      0.0285
    154  CG        56.6670   85.4100   45.2670 C.3   232  LYS232      0.0035
    155  CD        56.4630   86.8840   44.9200 C.3   232  LYS232      0.0206
    156  CE        57.7750   87.6600   44.9930 C.3   232  LYS232      0.1093
    157  NZ        57.7270   88.7900   45.9660 N.3   232  LYS232     -0.1314
    158  N         54.6160   82.2980   46.8480 N.am  233  HIS233     -0.1976
    159  CA        54.3990   82.0630   48.2820 C.3   233  HIS233      0.1656
    160  C         54.3860   80.6460   48.8100 C.2   233  HIS233      0.2291
    161  O         54.0040   80.4260   49.9560 O.2   233  HIS233     -0.2864
    162  CB        53.1370   82.7700   48.7320 C.3   233  HIS233      0.0771
    163  CG        53.1550   84.2130   48.4040 C.ar  233  HIS233      0.0820
    164  ND1       53.9990   85.0910   49.0410 N.ar  233  HIS233     -0.2267
    165  CD2       52.5460   84.9150   47.4200 C.ar  233  HIS233      0.1154
    166  CE1       53.8660   86.2910   48.5060 C.ar  233  HIS233      0.1986
    167  NE2       52.9890   86.2120   47.5200 N.ar  233  HIS233     -0.2212
    168  N         50.7800   82.1330   39.2560 N.3   257  GLU257     -0.1245
    169  CA        50.7350   83.5460   39.4990 C.3   257  GLU257      0.1567
    170  C         51.9310   84.0050   40.3340 C.2   257  GLU257      0.2260
    171  O         52.0440   83.6800   41.5150 O.2   257  GLU257     -0.2867
    172  CB        49.4330   83.9140   40.2080 C.3   257  GLU257      0.0388
    173  CG        49.2310   85.4100   40.3420 C.3   257  GLU257      0.1160
    174  CD        48.6200   85.8080   41.6620 C.2   257  GLU257      0.3649
    175  OE1       48.6870   85.0150   42.6300 O.co2 257  GLU257     -0.2457
    176  OE2       48.0690   86.9130   41.7250 O.co2 257  GLU257     -0.2457
    177  N         53.3410   87.5960   40.9940 N.3   259  PHE259     -0.1241
    178  CA        53.2020   89.0200   40.8090 C.3   259  PHE259      0.1605
    179  C         54.5010   89.8010   40.6480 C.2   259  PHE259      0.2264
    180  O         55.4440   89.6170   41.4150 O.2   259  PHE259     -0.2867
    181  CB        52.3150   89.6420   41.8960 C.3   259  PHE259      0.0534
    182  CG        51.9220   91.0740   41.6040 C.ar  259  PHE259     -0.0203
    183  CD1       52.8470   92.1060   41.7420 C.ar  259  PHE259     -0.0042
    184  CD2       50.6500   91.3820   41.1480 C.ar  259  PHE259     -0.0042
    185  CE1       52.5030   93.4190   41.4510 C.ar  259  PHE259     -0.0003
    186  CE2       50.3020   92.6920   40.8570 C.ar  259  PHE259     -0.0003
    187  CZ        51.2320   93.7080   41.0070 C.ar  259  PHE259     -0.0000
    188  N         55.7490   93.9340   39.8560 N.3   261  GLY261     -0.1225
    189  CA        55.2940   95.3070   39.7620 C.3   261  GLY261      0.1811
    190  C         55.9050   95.9660   38.5340 C.2   261  GLY261      0.2280
    191  O         56.6610   95.3390   37.7810 O.2   261  GLY261     -0.2866
    192  N         59.6570   95.7660   37.3440 N.3   264  GLU264     -0.1245
    193  CA        60.3280   94.7350   38.0960 C.3   264  GLU264      0.1567
    194  C         60.7260   93.5850   37.1900 C.2   264  GLU264      0.2260
    195  O         59.9240   93.1040   36.3900 O.2   264  GLU264     -0.2867
    196  CB        59.4750   94.2330   39.2440 C.3   264  GLU264      0.0388
    197  CG        60.2040   93.2120   40.0710 C.3   264  GLU264      0.1160
    198  CD        59.3750   92.6890   41.2050 C.2   264  GLU264      0.3649
    199  OE1       58.3010   93.2750   41.4760 O.co2 264  GLU264     -0.2457
    200  OE2       59.8010   91.6990   41.8330 O.co2 264  GLU264     -0.2457
    201  N         41.8060   90.4800   37.8250 N.3   327  HIS327     -0.1226
    202  CA        41.0670   90.7640   39.0590 C.3   327  HIS327      0.1752
    203  C         41.8470   91.4730   40.1660 C.2   327  HIS327      0.2596
    204  O         41.2830   91.7950   41.2150 O.2   327  HIS327     -0.2718
    205  CB        40.5040   89.4610   39.6110 C.3   327  HIS327      0.0759
    206  CG        41.5380   88.3970   39.7660 C.ar  327  HIS327      0.0818
    207  ND1       42.2110   87.8610   38.6910 N.ar  327  HIS327     -0.2268
    208  CD2       42.0590   87.8110   40.8700 C.ar  327  HIS327      0.1154
    209  CE1       43.0900   86.9750   39.1260 C.ar  327  HIS327      0.1986
    210  NE2       43.0160   86.9240   40.4440 N.ar  327  HIS327     -0.2212
    211  N         43.1350   91.7070   39.9500 N.am  328  ASP328     -0.1974
    212  CA        43.9610   92.3470   40.9700 C.3   328  ASP328      0.1709
    213  C         44.5670   93.6470   40.4890 C.2   328  ASP328      0.2293
    214  O         45.5180   94.1510   41.0770 O.2   328  ASP328     -0.2864
    215  CB        45.0910   91.4050   41.4010 C.3   328  ASP328      0.1436
    216  CG        44.5920   90.1910   42.1680 C.2   328  ASP328      0.3671
    217  OD1       43.6650   90.3330   42.9950 O.co2 328  ASP328     -0.2456
    218  OD2       45.1580   89.0960   41.9680 O.co2 328  ASP328     -0.2456
    219  N         40.1600   96.0380   43.6530 N.3   371  ASP371     -0.1239
    220  CA        39.2330   95.1760   44.3770 C.3   371  ASP371      0.1674
    221  C         38.4380   95.9870   45.4040 C.2   371  ASP371      0.2266
    222  O         39.0250   96.6980   46.2210 O.2   371  ASP371     -0.2867
    223  CB        40.0700   94.1000   45.0740 C.3   371  ASP371      0.1410
    224  CG        39.2370   93.0900   45.8070 C.2   371  ASP371      0.3668
    225  OD1       38.0210   93.0240   45.5510 O.co2 371  ASP371     -0.2456
    226  OD2       39.8080   92.3380   46.6230 O.co2 371  ASP371     -0.2456
    227  N         35.6410   94.0360   39.7280 N.3   375  ARG375     -0.1245
    228  CA        34.8650   92.8050   39.6500 C.3   375  ARG375      0.1563
    229  C         33.3410   92.9880   39.5830 C.2   375  ARG375      0.2260
    230  O         32.5930   92.2490   40.2260 O.2   375  ARG375     -0.2867
    231  CB        35.2430   91.8810   40.8100 C.3   375  ARG375      0.0307
    232  CG        36.7470   91.7110   40.9840 C.3   375  ARG375      0.0489
    233  CD        37.0780   91.3260   42.3970 C.3   375  ARG375      0.2205
    234  NE        38.5070   91.1400   42.6020 N.pl3 375  ARG375     -0.0865
    235  CZ        39.0220   90.4110   43.5860 C.cat 375  ARG375      0.5346
    236  NH1       38.2160   89.7830   44.4370 N.pl3 375  ARG375      0.1354
    237  NH2       40.3360   90.2940   43.7080 N.pl3 375  ARG375      0.1354
@<TRIPOS>BOND
     1   195   194    2
     2   130   129    1
     3   130   131    1
     4   125   126    1
     5   129   126    1
     6   126   127    1
     7   194   193    1
     8   192   193    1
     9   131   132    1
    10   191   190    2
    11   201   202    1
    12   193   196    1
    13   190   189    1
    14   127   128    2
    15   207   209   ar
    16   207   206   ar
    17   132   133    2
    18   202   205    1
    19   202   203    1
    20   209   210   ar
    21   196   197    1
    22   168   169    1
    23   134   133    1
    24   169   172    1
    25   169   170    1
    26   229   228    1
    27   229   230    2
    28   205   206    1
    29   228   227    1
    30   228   231    1
    31   189   188    1
    32   206   208   ar
    33   133   135    1
    34   211   203   am
    35   211   212    1
    36   197   198    1
    37   203   204    2
    38   172   173    1
    39   170   171    2
    40   173   174    1
    41   210   208   ar
    42   213   212    1
    43   213   214    2
    44   179   178    1
    45   179   180    2
    46   178   177    1
    47   178   181    1
    48   231   232    1
    49   186   187   ar
    50   186   184   ar
    51   212   215    1
    52   232   233    1
    53   187   185   ar
    54   184   182   ar
    55   198   199   ar
    56   198   200   ar
    57   215   216    1
    58   185   183   ar
    59   182   183   ar
    60   182   181    1
    61    46    45    1
    62   174   176   ar
    63   174   175   ar
    64   218   216   ar
    65   136   137    1
    66   216   217   ar
    67   233   234    1
    68   234   235    2
    69   137   140    1
    70   137   138    1
    71    45    44   ar
    72    45    43   ar
    73   140   141    1
    74   235   237    1
    75   235   236    1
    76    44    42   ar
    77    43    41   ar
    78   219   220    1
    79    28    27    2
    80   138   144   am
    81   138   139    2
    82   144   145    1
    83   142   141   ar
    84    22    20   ar
    85    22    23   ar
    86   149   150    1
    87    16    15    2
    88   220   223    1
    89   220   221    1
    90   141   143   ar
    91   153   150    1
    92   153   154    1
    93    20    18   ar
    94    27    26    1
    95   146   145    1
    96   146   147    2
    97   145   148    1
    98   150   151    1
    99    26    29    1
   100    26    25    1
   101   155   156    1
   102   155   154    1
   103    42    40   ar
   104    41    40   ar
   105   156   157    1
   106    24    23    1
   107   223   224    1
   108    23    21   ar
   109    15    25   am
   110    15    14    1
   111    29    30    1
   112   221   222    2
   113   225   224   ar
   114    40    39    1
   115    18    17    1
   116    18    19   ar
   117   224   226   ar
   118    17    14    1
   119   151   158   am
   120   151   152    2
   121    14    13    1
   122    21    19   ar
   123    35    36    1
   124   158   159    1
   125    30    31   ar
   126    30    32   ar
   127    39    36    1
   128    36    37    1
   129   165   167   ar
   130   165   163   ar
   131   167   166   ar
   132    31    33   ar
   133    32    34   ar
   134   159   162    1
   135   159   160    1
   136   163   162    1
   137   163   164   ar
   138   166   164   ar
   139   160   161    2
   140    37    38    2
   141    37    47   am
   142    33    34   ar
   143    69    70   ar
   144    69    67   ar
   145    47    48    1
   146   108   107    1
   147    95    94    1
   148    70    68   ar
   149    84    86   ar
   150    84    83   ar
   151    86    88   ar
   152    67    66   ar
   153    81    80    2
   154    82    83    1
   155    82    79    1
   156    83    85   ar
   157   106   107   ar
   158   106   104   ar
   159    88    87   ar
   160   107   105   ar
   161    48    49    1
   162    48    51    1
   163    96    94    1
   164    49    50    2
   165    94    93    1
   166    68    66   ar
   167    61    62    1
   168    64    63    2
   169    66    65    1
   170    53    55   ar
   171    53    52   ar
   172    80    79    1
   173    85    87   ar
   174    55    56   ar
   175    79    78    1
   176    51    52    1
   177    52    54   ar
   178   123   122    1
   179   104   102   ar
   180    56    54   ar
   181    56    58   ar
   182    54    57   ar
   183   105   103   ar
   184    93    90    1
   185    58    60   ar
   186    63    62    1
   187    62    65    1
   188    57    59   ar
   189    60    59   ar
   190   102   103   ar
   191   102   101    1
   192   122   124    1
   193   122   121    1
   194    90    91    1
   195    90    89    1
   196   121   118    1
   197    91    92    2
   198    91    97   am
   199   101    98    1
   200    97    98    1
   201    77    76    1
   202    77    71    1
   203    98    99    1
   204   118   117    1
   205   118   119    1
   206    10     8   ar
   207    10    11   ar
   208     8     6   ar
   209    76    75    1
   210   117   111   am
   211   119   120    2
   212    71    72    1
   213   115   114   ar
   214    12    11    1
   215    99   109   am
   216    99   100    2
   217    11     9   ar
   218     6     5    1
   219     6     7   ar
   220     5     2    1
   221   109   110    1
   222    75    72    1
   223    72    73    1
   224   111   110    1
   225   111   112    2
   226     4     3    2
   227   114   116   ar
   228   114   113    1
   229     9     7   ar
   230   110   113    1
   231     1     2    1
   232     2     3    1
   233    73    74    2
