@<TRIPOS>MOLECULE
tmp/1cxfA02.pdb
 120 118 0 0 0
SMALL
GASTEIGER

@<TRIPOS>ATOM
      1  N         57.8680   87.8920   52.2050 N.3   185  THR185     -0.1218
      2  CA        58.7520   86.9110   51.5890 C.3   185  THR185      0.1862
      3  C         57.8940   85.8060   50.9990 C.2   185  THR185      0.2287
      4  O         56.7290   85.6740   51.3560 O.2   185  THR185     -0.2866
      5  CB        59.7960   86.3410   52.5830 C.3   185  THR185      0.1770
      6  OG1       59.1380   85.5790   53.6050 O.3   185  THR185     -0.2211
      7  CG2       60.5730   87.4550   53.2260 C.3   185  THR185      0.0375
      8  N         58.1950   82.5340   51.3910 N.3   187  GLU187     -0.1245
      9  CA        57.8660   81.4850   52.3520 C.3   187  GLU187      0.1567
     10  C         56.8380   82.0120   53.3220 C.2   187  GLU187      0.2260
     11  O         56.0420   81.2580   53.8500 O.2   187  GLU187     -0.2867
     12  CB        59.1050   81.0240   53.1010 C.3   187  GLU187      0.0388
     13  CG        58.8580   80.6160   54.5310 C.3   187  GLU187      0.1160
     14  CD        60.0980   80.7370   55.3590 C.2   187  GLU187      0.3649
     15  OE1       60.9690   81.5190   54.9690 O.co2 187  GLU187     -0.2457
     16  OE2       60.2380   80.0350   56.3710 O.co2 187  GLU187     -0.2457
     17  N         74.7740   79.6460   58.0190 N.3   598  THR598     -0.1203
     18  CA        75.2380   80.2110   56.7580 C.3   598  THR598      0.1994
     19  C         75.6480   81.6710   56.9810 C.2   598  THR598      0.2618
     20  O         75.5800   82.1950   58.0880 O.2   598  THR598     -0.2717
     21  CB        74.1170   80.1850   55.7060 C.3   598  THR598      0.1784
     22  OG1       72.8550   80.2420   56.3780 O.3   598  THR598     -0.2211
     23  CG2       74.1740   78.9240   54.8760 C.3   598  THR598      0.0376
     24  N         76.0540   82.3220   55.9010 N.am  599  ALA599     -0.1965
     25  CA        76.4330   83.7260   55.9180 C.3   599  ALA599      0.1728
     26  C         75.3030   84.4050   55.1700 C.2   599  ALA599      0.2616
     27  O         74.7030   83.7760   54.3020 O.2   599  ALA599     -0.2715
     28  CB        77.7380   83.9140   55.1610 C.3   599  ALA599      0.0334
     29  N         74.9940   85.6590   55.4880 N.am  600  LEU600     -0.1963
     30  CA        73.9060   86.3280   54.7760 C.3   600  LEU600      0.1728
     31  C         74.1250   86.2780   53.2600 C.2   600  LEU600      0.2617
     32  O         75.2010   86.6040   52.7650 O.2   600  LEU600     -0.2715
     33  CB        73.6460   87.7590   55.2710 C.3   600  LEU600      0.0311
     34  CG        72.2070   88.1840   54.9270 C.3   600  LEU600      0.0022
     35  CD1       71.2840   88.0510   56.1170 C.3   600  LEU600      0.0001
     36  CD2       72.1040   89.5740   54.3040 C.3   600  LEU600      0.0001
     37  N         73.1230   85.7920   52.5420 N.am  601  GLY601     -0.1940
     38  CA        73.2210   85.6700   51.0940 C.3   601  GLY601      0.2014
     39  C         73.4440   84.2100   50.6550 C.2   601  GLY601      0.2639
     40  O         73.1650   83.8420   49.5030 O.2   601  GLY601     -0.2714
     41  N         73.9500   83.3800   51.5580 N.am  602  GLN602     -0.1963
     42  CA        74.1630   81.9940   51.2100 C.3   602  GLN602      0.1733
     43  C         73.0400   81.1540   51.8300 C.2   602  GLN602      0.2616
     44  O         72.6370   81.3870   52.9850 O.2   602  GLN602     -0.2715
     45  CB        75.5510   81.5370   51.6490 C.3   602  GLN602      0.0408
     46  CG        75.5490   80.6350   52.8330 C.3   602  GLN602      0.0908
     47  CD        76.9370   80.2720   53.2580 C.2   602  GLN602      0.2608
     48  OE1       77.3130   80.4790   54.4080 O.2   602  GLN602     -0.2717
     49  NE2       77.7150   79.7080   52.3360 N.am  602  GLN602     -0.0878
     50  N         72.5050   80.2160   51.0460 N.am  603  ASN603     -0.1972
     51  CA        71.3970   79.3650   51.4920 C.3   603  ASN603      0.1688
     52  C         71.6020   77.8890   51.2730 C.2   603  ASN603      0.2292
     53  O         72.2120   77.4710   50.2850 O.2   603  ASN603     -0.2864
     54  CB        70.1110   79.7290   50.7560 C.3   603  ASN603      0.1181
     55  CG        69.8470   81.1950   50.7430 C.2   603  ASN603      0.2629
     56  OD1       69.0440   81.6730   51.5220 O.2   603  ASN603     -0.2716
     57  ND2       70.4180   81.9020   49.7720 N.am  603  ASN603     -0.0877
     58  N         66.2490   76.4500   50.5310 N.3   625  MET625     -0.1230
     59  CA        65.3200   76.0470   51.5580 C.3   625  MET625      0.1702
     60  C         64.9230   77.2270   52.4310 C.2   625  MET625      0.2592
     61  O         65.5210   78.2930   52.3470 O.2   625  MET625     -0.2718
     62  CB        65.9480   74.9400   52.4100 C.3   625  MET625      0.0401
     63  CG        66.1710   73.6250   51.6310 C.3   625  MET625      0.0596
     64  SD        66.9380   72.3380   52.6130 S.3   625  MET625     -0.1393
     65  CE        65.7040   71.9700   53.7950 C.3   625  MET625      0.0692
     66  N         63.9060   77.0260   53.2710 N.am  626  TYR626     -0.1962
     67  CA        63.3850   78.0740   54.1570 C.3   626  TYR626      0.1771
     68  C         63.7800   77.8740   55.6140 C.2   626  TYR626      0.2620
     69  O         63.9170   76.7440   56.0890 O.2   626  TYR626     -0.2715
     70  CB        61.8500   78.1030   54.1090 C.3   626  TYR626      0.0574
     71  CG        61.1890   78.1700   52.7430 C.ar  626  TYR626     -0.0198
     72  CD1       61.5060   79.1680   51.8310 C.ar  626  TYR626     -0.0009
     73  CD2       60.1380   77.3020   52.4220 C.ar  626  TYR626     -0.0009
     74  CE1       60.8320   79.2680   50.6030 C.ar  626  TYR626      0.0417
     75  CE2       59.4700   77.3880   51.2080 C.ar  626  TYR626      0.0417
     76  CZ        59.8200   78.3710   50.3020 C.ar  626  TYR626      0.1957
     77  OH        59.1610   78.4370   49.0910 O.3   626  TYR626     -0.2866
     78  N         63.9020   78.9830   56.3370 N.am  627  ASN627     -0.1958
     79  CA        64.2370   78.9500   57.7680 C.3   627  ASN627      0.1819
     80  C         63.4990   80.0530   58.5330 C.2   627  ASN627      0.2621
     81  O         64.0220   80.5760   59.5120 O.2   627  ASN627     -0.2715
     82  CB        65.7310   79.1250   57.9740 C.3   627  ASN627      0.1195
     83  CG        66.2980   80.2720   57.1690 C.2   627  ASN627      0.2630
     84  OD1       65.6190   81.2500   56.8910 O.2   627  ASN627     -0.2716
     85  ND2       67.5490   80.1480   56.7800 N.am  627  ASN627     -0.0877
     86  N         62.2860   80.3990   58.0900 N.am  628  GLN628     -0.1977
     87  CA        61.5160   81.4660   58.7250 C.3   628  GLN628      0.1601
     88  C         60.2820   81.0130   59.5460 C.2   628  GLN628      0.2287
     89  O         60.2580   81.1170   60.7890 O.2   628  GLN628     -0.2864
     90  CB        61.0630   82.4780   57.6500 C.3   628  GLN628      0.0394
     91  CG        62.1960   83.3290   56.9980 C.3   628  GLN628      0.0908
     92  CD        61.7210   84.1830   55.7850 C.2   628  GLN628      0.2608
     93  OE1       60.5490   84.1450   55.3990 O.2   628  GLN628     -0.2717
     94  NE2       62.6460   84.9530   55.1980 N.am  628  GLN628     -0.0878
     95  N         65.8040   79.2760   61.2450 N.3   633  TYR633     -0.1241
     96  CA        67.2320   79.1170   60.9860 C.3   633  TYR633      0.1605
     97  C         67.8750   79.0430   62.3570 C.2   633  TYR633      0.2264
     98  O         67.3570   79.6380   63.2980 O.2   633  TYR633     -0.2867
     99  CB        67.7660   80.3410   60.2630 C.3   633  TYR633      0.0534
    100  CG        69.2780   80.4530   60.2690 C.ar  633  TYR633     -0.0201
    101  CD1       69.9600   80.9480   61.3810 C.ar  633  TYR633     -0.0009
    102  CD2       70.0300   80.0540   59.1590 C.ar  633  TYR633     -0.0009
    103  CE1       71.3380   81.0390   61.3910 C.ar  633  TYR633      0.0417
    104  CE2       71.4130   80.1570   59.1600 C.ar  633  TYR633      0.0417
    105  CZ        72.0550   80.6520   60.2780 C.ar  633  TYR633      0.1957
    106  OH        73.4190   80.7520   60.2800 O.3   633  TYR633     -0.2866
    107  N         66.4990   74.5470   58.4290 N.3   636  TRP636     -0.1241
    108  CA        65.9080   74.8460   57.1370 C.3   636  TRP636      0.1605
    109  C         64.9820   73.6930   56.7850 C.2   636  TRP636      0.2264
    110  O         65.1960   72.5560   57.2160 O.2   636  TRP636     -0.2867
    111  CB        67.0150   74.9960   56.0760 C.3   636  TRP636      0.0550
    112  CG        68.0640   76.0850   56.4010 C.ar  636  TRP636      0.0003
    113  CD1       68.9050   76.1360   57.5000 C.ar  636  TRP636      0.0946
    114  CD2       68.3910   77.2410   55.6020 C.ar  636  TRP636      0.0152
    115  NE1       69.7050   77.2560   57.4290 N.ar  636  TRP636     -0.2442
    116  CE2       69.4190   77.9410   56.2750 C.ar  636  TRP636      0.0810
    117  CE3       67.9260   77.7370   54.3880 C.ar  636  TRP636      0.0012
    118  CZ2       69.9670   79.1070   55.7790 C.ar  636  TRP636      0.0191
    119  CZ3       68.4870   78.8910   53.8950 C.ar  636  TRP636      0.0001
    120  CH2       69.4920   79.5660   54.5920 C.ar  636  TRP636      0.0015
@<TRIPOS>BOND
     1    77    76    1
     2    40    39    2
     3    57    55   am
     4    53    52    2
     5    76    74   ar
     6    76    75   ar
     7    58    59    1
     8    74    72   ar
     9    39    38    1
    10    39    41   am
    11    55    54    1
    12    55    56    2
    13    54    51    1
    14     3     4    2
    15     3     2    1
    16    50    51    1
    17    50    43   am
    18    38    37    1
    19    75    73   ar
    20    42    41    1
    21    42    45    1
    22    42    43    1
    23    52    51    1
    24     8     9    1
    25    59    62    1
    26    59    60    1
    27     2     1    1
    28     2     5    1
    29    63    62    1
    30    63    64    1
    31    45    46    1
    32    43    44    2
    33    72    71   ar
    34    49    47   am
    35    61    60    2
    36     9    12    1
    37     9    10    1
    38    73    71   ar
    39    60    66   am
    40    37    31   am
    41     5     7    1
    42     5     6    1
    43    64    65    1
    44    71    70    1
    45    32    31    2
    46    46    47    1
    47    12    13    1
    48    47    48    2
    49    31    30    1
    50    66    67    1
    51    10    11    2
    52   119   117   ar
    53   119   120   ar
    54    70    67    1
    55    67    68    1
    56    27    26    2
    57    36    34    1
    58   117   114   ar
    59    13    14    1
    60   120   118   ar
    61    30    33    1
    62    30    29    1
    63    23    21    1
    64    34    33    1
    65    34    35    1
    66    15    14   ar
    67    28    25    1
    68    26    29   am
    69    26    25    1
    70    94    92   am
    71    14    16   ar
    72    93    92    2
    73   114   116   ar
    74   114   112   ar
    75    68    69    2
    76    68    78   am
    77    21    22    1
    78    21    18    1
    79   118   116   ar
    80    92    91    1
    81    24    25    1
    82    24    19   am
    83   111   112    1
    84   111   108    1
    85   116   115   ar
    86    78    79    1
    87   112   113   ar
    88    18    19    1
    89    18    17    1
    90    85    83   am
    91   109   108    1
    92   109   110    2
    93    84    83    2
    94    19    20    2
    95    91    90    1
    96   108   107    1
    97    83    82    1
    98   115   113   ar
    99    90    87    1
   100    79    82    1
   101    79    80    1
   102    86    80   am
   103    86    87    1
   104    80    81    2
   105    87    88    1
   106   102   104   ar
   107   102   100   ar
   108   104   105   ar
   109    88    89    2
   110    99   100    1
   111    99    96    1
   112   100   101   ar
   113   105   106    1
   114   105   103   ar
   115    96    95    1
   116    96    97    1
   117   101   103   ar
   118    97    98    2
