@<TRIPOS>MOLECULE
tmp/1cxkA02.pdb
 114 110 0 0 0
SMALL
GASTEIGER

@<TRIPOS>ATOM
      1  N         56.1930   90.2850   52.6100 N.3   184  SER184     -0.1202
      2  CA        57.5590   90.7740   52.6320 C.3   184  SER184      0.2020
      3  C         58.5290   89.8160   51.9700 C.2   184  SER184      0.2619
      4  O         59.5640   90.2280   51.4540 O.2   184  SER184     -0.2717
      5  CB        58.0310   91.1370   54.0290 C.3   184  SER184      0.2103
      6  OG        57.8900   90.0130   54.8690 O.3   184  SER184     -0.2182
      7  N         58.1990   88.5280   51.9940 N.am  185  THR185     -0.1952
      8  CA        59.0500   87.5250   51.3840 C.3   185  THR185      0.1897
      9  C         58.2200   86.3860   50.8310 C.2   185  THR185      0.2313
     10  O         57.0540   86.2310   51.1820 O.2   185  THR185     -0.2863
     11  CB        60.1180   86.9850   52.3530 C.3   185  THR185      0.1794
     12  OG1       59.5260   86.0780   53.2570 O.3   185  THR185     -0.2208
     13  CG2       60.7620   88.1330   53.1220 C.3   185  THR185      0.0378
     14  N         58.6760   83.1060   51.2920 N.3   187  GLU187     -0.1245
     15  CA        58.4040   82.1660   52.3610 C.3   187  GLU187      0.1567
     16  C         57.2350   82.6550   53.2090 C.2   187  GLU187      0.2260
     17  O         56.3250   81.8970   53.5420 O.2   187  GLU187     -0.2867
     18  CB        59.6740   81.9490   53.2090 C.3   187  GLU187      0.0388
     19  CG        59.4670   81.0980   54.4720 C.3   187  GLU187      0.1160
     20  CD        60.6160   81.2310   55.4270 C.2   187  GLU187      0.3649
     21  OE1       61.4860   82.0700   55.3070 O.co2 187  GLU187     -0.2457
     22  OE2       60.5840   80.3670   56.4040 O.co2 187  GLU187     -0.2457
     23  N         75.4620   79.9350   57.9170 N.3   598  THR598     -0.1203
     24  CA        75.8550   80.5620   56.6710 C.3   598  THR598      0.1994
     25  C         76.1870   82.0350   56.8500 C.2   598  THR598      0.2618
     26  O         75.8810   82.6520   57.8670 O.2   598  THR598     -0.2717
     27  CB        74.6830   80.4640   55.6740 C.3   598  THR598      0.1784
     28  OG1       73.5290   81.0000   56.2860 O.3   598  THR598     -0.2211
     29  CG2       74.4080   79.0100   55.3060 C.3   598  THR598      0.0376
     30  N         76.8010   82.6030   55.8240 N.am  599  ALA599     -0.1965
     31  CA        77.1290   84.0080   55.8230 C.3   599  ALA599      0.1728
     32  C         76.0180   84.7160   55.0760 C.2   599  ALA599      0.2616
     33  O         75.3280   84.0930   54.2660 O.2   599  ALA599     -0.2715
     34  CB        78.4530   84.2600   55.1250 C.3   599  ALA599      0.0334
     35  N         75.8340   86.0030   55.3440 N.am  600  LEU600     -0.1963
     36  CA        74.7930   86.7540   54.6690 C.3   600  LEU600      0.1728
     37  C         74.9070   86.6460   53.1550 C.2   600  LEU600      0.2617
     38  O         75.9590   86.9280   52.5770 O.2   600  LEU600     -0.2715
     39  CB        74.7630   88.2190   55.1320 C.3   600  LEU600      0.0311
     40  CG        73.9640   88.4060   56.4160 C.3   600  LEU600      0.0022
     41  CD1       74.1330   89.8270   56.9350 C.3   600  LEU600      0.0001
     42  CD2       72.4890   88.1170   56.1540 C.3   600  LEU600      0.0001
     43  N         73.8140   86.2290   52.5120 N.am  601  GLY601     -0.1940
     44  CA        73.7960   86.0800   51.0680 C.3   601  GLY601      0.2014
     45  C         74.0380   84.6420   50.6180 C.2   601  GLY601      0.2639
     46  O         73.8390   84.2960   49.4570 O.2   601  GLY601     -0.2714
     47  N         74.4810   83.8110   51.5560 N.am  602  GLN602     -0.1963
     48  CA        74.7480   82.4020   51.3210 C.3   602  GLN602      0.1733
     49  C         73.5540   81.5940   51.8130 C.2   602  GLN602      0.2616
     50  O         73.0490   81.8360   52.9060 O.2   602  GLN602     -0.2715
     51  CB        76.0470   82.0020   52.0410 C.3   602  GLN602      0.0408
     52  CG        76.4350   80.5230   51.9080 C.3   602  GLN602      0.0908
     53  CD        77.6790   80.2090   52.7160 C.2   602  GLN602      0.2608
     54  OE1       77.7770   80.5850   53.8930 O.2   602  GLN602     -0.2717
     55  NE2       78.6400   79.5390   52.0860 N.am  602  GLN602     -0.0878
     56  N         73.0850   80.6550   50.9960 N.am  603  ASN603     -0.1972
     57  CA        71.9140   79.8560   51.3390 C.3   603  ASN603      0.1688
     58  C         72.1460   78.3580   51.2610 C.2   603  ASN603      0.2292
     59  O         73.1100   77.8810   50.6640 O.2   603  ASN603     -0.2864
     60  CB        70.7010   80.2400   50.4660 C.3   603  ASN603      0.1181
     61  CG        70.2190   81.6590   50.7100 C.2   603  ASN603      0.2629
     62  OD1       69.4600   81.9140   51.6540 O.2   603  ASN603     -0.2716
     63  ND2       70.6650   82.5970   49.8740 N.am  603  ASN603     -0.0877
     64  N         66.6320   77.0420   50.4220 N.3   625  MET625     -0.1245
     65  CA        65.7460   76.5740   51.4740 C.3   625  MET625      0.1570
     66  C         65.2450   77.7200   52.3470 C.2   625  MET625      0.2261
     67  O         65.7710   78.8320   52.3050 O.2   625  MET625     -0.2867
     68  CB        66.3620   75.4170   52.2910 C.3   625  MET625      0.0387
     69  CG        66.5780   74.1590   51.4620 C.3   625  MET625      0.0595
     70  SD        67.4060   72.8040   52.3440 S.3   625  MET625     -0.1393
     71  CE        66.1770   72.3470   53.5910 C.3   625  MET625      0.0692
     72  N         64.1270   79.4780   56.1800 N.3   627  ASN627     -0.1225
     73  CA        64.6450   79.4830   57.5460 C.3   627  ASN627      0.1785
     74  C         63.9990   80.4870   58.5020 C.2   627  ASN627      0.2597
     75  O         64.6380   80.9110   59.4660 O.2   627  ASN627     -0.2718
     76  CB        66.1730   79.6730   57.5690 C.3   627  ASN627      0.1169
     77  CG        66.5900   81.0230   57.0130 C.2   627  ASN627      0.2627
     78  OD1       65.7870   81.9590   56.9380 O.2   627  ASN627     -0.2716
     79  ND2       67.8410   81.1290   56.5930 N.am  627  ASN627     -0.0877
     80  N         62.7410   80.8670   58.2690 N.am  628  GLN628     -0.1979
     81  CA        62.1010   81.8280   59.1570 C.3   628  GLN628      0.1601
     82  C         60.8140   81.3780   59.8470 C.2   628  GLN628      0.2287
     83  O         60.7080   81.4320   61.0710 O.2   628  GLN628     -0.2864
     84  CB        61.8440   83.1790   58.4600 C.3   628  GLN628      0.0394
     85  CG        63.1270   83.9430   58.0850 C.3   628  GLN628      0.0908
     86  CD        63.9560   84.3610   59.2860 C.2   628  GLN628      0.2608
     87  OE1       63.5240   85.1810   60.1120 O.2   628  GLN628     -0.2717
     88  NE2       65.1610   83.8060   59.3820 N.am  628  GLN628     -0.0878
     89  N         66.3410   79.6850   61.4480 N.3   633  TYR633     -0.1241
     90  CA        67.7690   79.5920   61.2060 C.3   633  TYR633      0.1605
     91  C         68.4500   79.3920   62.5540 C.2   633  TYR633      0.2264
     92  O         67.9530   79.9390   63.5340 O.2   633  TYR633     -0.2867
     93  CB        68.2290   80.9360   60.6240 C.3   633  TYR633      0.0534
     94  CG        69.7260   81.0290   60.5370 C.ar  633  TYR633     -0.0201
     95  CD1       70.4820   81.5150   61.6040 C.ar  633  TYR633     -0.0009
     96  CD2       70.3810   80.6290   59.3720 C.ar  633  TYR633     -0.0009
     97  CE1       71.8720   81.6050   61.5160 C.ar  633  TYR633      0.0417
     98  CE2       71.7680   80.7150   59.2650 C.ar  633  TYR633      0.0417
     99  CZ        72.5100   81.2010   60.3420 C.ar  633  TYR633      0.1957
    100  OH        73.8710   81.2830   60.2350 O.3   633  TYR633     -0.2866
    101  N         67.0590   74.8140   58.5360 N.3   636  TRP636     -0.1241
    102  CA        66.4250   75.1390   57.2650 C.3   636  TRP636      0.1605
    103  C         65.4750   74.0440   56.8150 C.2   636  TRP636      0.2264
    104  O         65.6520   72.8750   57.1390 O.2   636  TRP636     -0.2867
    105  CB        67.4360   75.4380   56.1380 C.3   636  TRP636      0.0550
    106  CG        68.5380   76.4100   56.4650 C.ar  636  TRP636      0.0003
    107  CD1       69.4250   76.3290   57.4880 C.ar  636  TRP636      0.0946
    108  CD2       68.9030   77.5810   55.7180 C.ar  636  TRP636      0.0152
    109  NE1       70.3010   77.3840   57.4520 N.ar  636  TRP636     -0.2442
    110  CE2       70.0040   78.1720   56.3750 C.ar  636  TRP636      0.0810
    111  CE3       68.3930   78.1890   54.5770 C.ar  636  TRP636      0.0012
    112  CZ2       70.6010   79.3440   55.9050 C.ar  636  TRP636      0.0191
    113  CZ3       68.9860   79.3440   54.1160 C.ar  636  TRP636      0.0001
    114  CH2       70.0760   79.9180   54.7720 C.ar  636  TRP636      0.0015
@<TRIPOS>BOND
     1    46    45    2
     2    63    61   am
     3    64    65    1
     4    60    61    1
     5    60    57    1
     6    45    44    1
     7    45    47   am
     8    59    58    2
     9    61    62    2
    10     9    10    2
    11     9     8    1
    12    56    57    1
    13    56    49   am
    14    44    43    1
    15    58    57    1
    16    14    15    1
    17    48    47    1
    18    48    49    1
    19    48    51    1
    20     8     7    1
    21     8    11    1
    22     4     3    2
    23    69    68    1
    24    69    70    1
    25    65    68    1
    26    65    66    1
    27    49    50    2
    28    52    51    1
    29    52    53    1
    30     3     7   am
    31     3     2    1
    32    55    53   am
    33    67    66    2
    34    70    71    1
    35    11    13    1
    36    11    12    1
    37    15    18    1
    38    15    16    1
    39    43    37   am
    40    38    37    2
    41     1     2    1
    42     2     5    1
    43    53    54    2
    44    37    36    1
    45    18    19    1
    46    16    17    2
    47     5     6    1
    48   113   111   ar
    49   113   114   ar
    50    33    32    2
    51    19    20    1
    52   111   108   ar
    53    36    39    1
    54    36    35    1
    55   114   112   ar
    56    32    35   am
    57    32    31    1
    58    34    31    1
    59    39    40    1
    60    29    27    1
    61    21    20   ar
    62    20    22   ar
    63    27    28    1
    64    27    24    1
    65   108   110   ar
    66   108   106   ar
    67    31    30    1
    68    30    25   am
    69   112   110   ar
    70   105   106    1
    71   105   102    1
    72    42    40    1
    73    72    73    1
    74   110   109   ar
    75    40    41    1
    76   106   107   ar
    77    79    77   am
    78    24    25    1
    79    24    23    1
    80   103   104    2
    81   103   102    1
    82    25    26    2
    83    78    77    2
    84    77    76    1
    85   102   101    1
    86   109   107   ar
    87    73    76    1
    88    73    74    1
    89    85    84    1
    90    85    86    1
    91    80    74   am
    92    80    81    1
    93    84    81    1
    94    74    75    2
    95    81    82    1
    96    98    96   ar
    97    98    99   ar
    98    86    88   am
    99    86    87    2
   100    96    94   ar
   101    82    83    2
   102   100    99    1
   103    99    97   ar
   104    94    93    1
   105    94    95   ar
   106    93    90    1
   107    90    89    1
   108    90    91    1
   109    97    95   ar
   110    91    92    2
