@<TRIPOS>MOLECULE
tmp/1cxvA00.pdb
 179 179 0 0 0
SMALL
GASTEIGER

@<TRIPOS>ATOM
      1  N         34.4750    3.2800   61.2490 N.3    73  TYR73      -0.1241
      2  CA        33.5690    4.2660   60.6840 C.3    73  TYR73       0.1605
      3  C         32.3530    3.5050   60.1530 C.2    73  TYR73       0.2264
      4  O         32.1320    3.4680   58.9440 O.2    73  TYR73      -0.2867
      5  CB        34.2800    4.9990   59.5390 C.3    73  TYR73       0.0534
      6  CG        33.7540    6.3840   59.2050 C.ar   73  TYR73      -0.0201
      7  CD1       32.3970    6.6040   58.9500 C.ar   73  TYR73      -0.0009
      8  CD2       34.6290    7.4640   59.0820 C.ar   73  TYR73      -0.0009
      9  CE1       31.9280    7.8660   58.5760 C.ar   73  TYR73       0.0417
     10  CE2       34.1690    8.7300   58.7080 C.ar   73  TYR73       0.0417
     11  CZ        32.8210    8.9220   58.4560 C.ar   73  TYR73       0.1957
     12  OH        32.3710   10.1610   58.0720 O.3    73  TYR73      -0.2866
     13  N         21.9790    9.9340   55.8630 N.3    80  GLY80      -0.1210
     14  CA        23.0090   10.1680   56.8530 C.3    80  GLY80       0.1956
     15  C         24.3670   10.0330   56.2060 C.2    80  GLY80       0.2612
     16  O         24.6290   10.6550   55.1840 O.2    80  GLY80      -0.2717
     17  N         25.2290    9.2120   56.7970 N.am   81  LEU81      -0.1965
     18  CA        26.5710    8.9950   56.2700 C.3    81  LEU81       0.1728
     19  C         26.4880    8.3300   54.8960 C.2    81  LEU81       0.2616
     20  O         25.8320    7.3000   54.7350 O.2    81  LEU81      -0.2715
     21  CB        27.3650    8.1080   57.2290 C.3    81  LEU81       0.0311
     22  CG        27.3260    8.5310   58.7010 C.3    81  LEU81       0.0022
     23  CD1       28.1520    7.5610   59.5340 C.3    81  LEU81       0.0001
     24  CD2       27.8520    9.9440   58.8540 C.3    81  LEU81       0.0001
     25  N         27.1610    8.9240   53.9140 N.am   82  LEU82      -0.1963
     26  CA        27.1610    8.4050   52.5520 C.3    82  LEU82       0.1728
     27  C         28.4080    7.5870   52.2300 C.2    82  LEU82       0.2616
     28  O         28.3120    6.5010   51.6610 O.2    82  LEU82      -0.2715
     29  CB        27.0430    9.5570   51.5540 C.3    82  LEU82       0.0311
     30  CG        25.8120   10.4540   51.7080 C.3    82  LEU82       0.0022
     31  CD1       25.8230   11.5430   50.6430 C.3    82  LEU82       0.0001
     32  CD2       24.5530    9.6120   51.5940 C.3    82  LEU82       0.0001
     33  N         29.5740    8.1090   52.5980 N.am   83  ALA83      -0.1963
     34  CA        30.8280    7.4210   52.3290 C.3    83  ALA83       0.1728
     35  C         31.9940    8.0930   53.0450 C.2    83  ALA83       0.2616
     36  O         31.8570    9.1960   53.5580 O.2    83  ALA83      -0.2715
     37  CB        31.0860    7.4120   50.8380 C.3    83  ALA83       0.0334
     38  N         33.1320    7.4120   53.0880 N.am   84  HIS84      -0.1959
     39  CA        34.3410    7.9570   53.7050 C.3    84  HIS84       0.1787
     40  C         35.5420    7.3200   53.0330 C.2    84  HIS84       0.2620
     41  O         35.4350    6.2370   52.4420 O.2    84  HIS84      -0.2715
     42  CB        34.3890    7.6920   55.2190 C.3    84  HIS84       0.0785
     43  CG        34.0920    6.2780   55.6040 C.ar   84  HIS84       0.0821
     44  ND1       32.8920    5.9090   56.1710 N.ar   84  HIS84      -0.2267
     45  CD2       34.8250    5.1430   55.4940 C.ar   84  HIS84       0.1154
     46  CE1       32.8960    4.5540   56.3920 C.ar   84  HIS84       0.1986
     47  NE2       34.0890    4.0820   55.9740 N.ar   84  HIS84      -0.2212
     48  N         36.6770    8.0010   53.1110 N.am   85  ALA85      -0.1977
     49  CA        37.9030    7.5100   52.5000 C.3    85  ALA85       0.1597
     50  C         39.0820    7.8150   53.4180 C.2    85  ALA85       0.2287
     51  O         38.9980    8.6900   54.2820 O.2    85  ALA85      -0.2864
     52  CB        38.1070    8.1710   51.1400 C.3    85  ALA85       0.0319
     53  N         29.5810   11.9650   41.6590 N.3   115  ILE115     -0.1231
     54  CA        29.9300   13.1440   42.4440 C.3   115  ILE115      0.1692
     55  C         30.4540   12.8020   43.8440 C.2   115  ILE115      0.2591
     56  O         31.3600   13.4650   44.3470 O.2   115  ILE115     -0.2718
     57  CB        28.7260   14.1360   42.5340 C.3   115  ILE115      0.0266
     58  CG1       29.2370   15.5530   42.8110 C.3   115  ILE115      0.0019
     59  CG2       27.7740   13.7320   43.6420 C.3   115  ILE115      0.0020
     60  CD1       30.1150   16.1200   41.7190 C.3   115  ILE115      0.0001
     61  N         29.8940   11.7710   44.4660 N.am  116  VAL116     -0.1980
     62  CA        30.3480   11.3690   45.7870 C.3   116  VAL116      0.1595
     63  C         31.7320   10.7410   45.6490 C.2   116  VAL116      0.2287
     64  O         32.6230   10.9980   46.4630 O.2   116  VAL116     -0.2864
     65  CB        29.3710   10.3690   46.4310 C.3   116  VAL116      0.0276
     66  CG1       29.9290    9.8490   47.7540 C.3   116  VAL116      0.0022
     67  CG2       28.0220   11.0540   46.6650 C.3   116  VAL116      0.0022
     68  N         34.4020   13.2710   45.2680 N.3   119  HIS119     -0.1226
     69  CA        34.7040   13.8750   46.5700 C.3   119  HIS119      0.1752
     70  C         35.6080   12.9470   47.3870 C.2   119  HIS119      0.2595
     71  O         36.6290   13.3780   47.9250 O.2   119  HIS119     -0.2718
     72  CB        33.4040   14.1450   47.3450 C.3   119  HIS119      0.0759
     73  CG        33.6180   14.6460   48.7430 C.ar  119  HIS119      0.0818
     74  ND1       33.7160   15.9850   49.0560 N.ar  119  HIS119     -0.2268
     75  CD2       33.7750   13.9760   49.9100 C.ar  119  HIS119      0.1154
     76  CE1       33.9350   16.1030   50.4070 C.ar  119  HIS119      0.1986
     77  NE2       33.9660   14.8500   50.9120 N.ar  119  HIS119     -0.2212
     78  N         35.2280   11.6720   47.4630 N.am  120  GLU120     -0.1979
     79  CA        35.9930   10.6830   48.2110 C.3   120  GLU120      0.1602
     80  C         37.4170   10.5430   47.6940 C.2   120  GLU120      0.2287
     81  O         38.3640   10.4600   48.4870 O.2   120  GLU120     -0.2864
     82  CB        35.3070    9.3100   48.1680 C.3   120  GLU120      0.0415
     83  CG        33.9700    9.2440   48.8820 C.3   120  GLU120      0.1163
     84  CD        34.0080    9.8600   50.2760 C.2   120  GLU120      0.3649
     85  OE1       34.8830    9.4820   51.0840 O.co2 120  GLU120     -0.2457
     86  OE2       33.1440   10.7230   50.5530 O.co2 120  GLU120     -0.2457
     87  N         39.8720   12.8970   49.0510 N.3   123  HIS123     -0.1241
     88  CA        40.4180   12.4720   50.3410 C.3   123  HIS123      0.1621
     89  C         41.5000   11.4270   50.1010 C.2   123  HIS123      0.2264
     90  O         42.5720   11.4880   50.6890 O.2   123  HIS123     -0.2867
     91  CB        39.3380   11.8410   51.2190 C.3   123  HIS123      0.0745
     92  CG        38.3210   12.8100   51.7360 C.ar  123  HIS123      0.0817
     93  ND1       38.6640   13.9990   52.3420 N.ar  123  HIS123     -0.2268
     94  CD2       36.9700   12.7280   51.8040 C.ar  123  HIS123      0.1154
     95  CE1       37.5060   14.5960   52.7800 C.ar  123  HIS123      0.1986
     96  NE2       36.4360   13.8170   52.4540 N.ar  123  HIS123     -0.2212
     97  N         38.5660   18.3550   54.0960 N.3   129  HIS129     -0.1241
     98  CA        37.4460   19.2120   53.7230 C.3   129  HIS129      0.1621
     99  C         37.8190   20.6730   53.5880 C.2   129  HIS129      0.2264
    100  O         38.6580   21.1890   54.3260 O.2   129  HIS129     -0.2867
    101  CB        36.3100   19.0500   54.7260 C.3   129  HIS129      0.0745
    102  CG        35.6320   17.7240   54.6270 C.ar  129  HIS129      0.0817
    103  ND1       35.1100   17.0690   55.7190 N.ar  129  HIS129     -0.2268
    104  CD2       35.4270   16.9140   53.5600 C.ar  129  HIS129      0.1154
    105  CE1       34.6270   15.8630   55.2710 C.ar  129  HIS129      0.1986
    106  NE2       34.8190   15.7570   53.9250 N.ar  129  HIS129     -0.2212
    107  N         31.6600   26.4190   47.6330 N.3   134  GLY134     -0.1210
    108  CA        31.5370   25.9970   46.2510 C.3   134  GLY134      0.1956
    109  C         32.5480   24.9440   45.8430 C.2   134  GLY134      0.2612
    110  O         32.6070   24.5650   44.6760 O.2   134  GLY134     -0.2717
    111  N         33.3410   24.4710   46.8010 N.am  135  ALA135     -0.1965
    112  CA        34.3560   23.4600   46.5180 C.3   135  ALA135      0.1728
    113  C         33.7690   22.0580   46.5500 C.2   135  ALA135      0.2616
    114  O         32.8110   21.7910   47.2760 O.2   135  ALA135     -0.2715
    115  CB        35.4920   23.5590   47.5220 C.3   135  ALA135      0.0334
    116  N         34.3520   21.1690   45.7550 N.am  136  LEU136     -0.1977
    117  CA        33.9020   19.7870   45.6980 C.3   136  LEU136      0.1596
    118  C         34.1990   19.1230   47.0380 C.2   136  LEU136      0.2287
    119  O         33.4840   18.2150   47.4680 O.2   136  LEU136     -0.2864
    120  CB        34.6370   19.0340   44.5870 C.3   136  LEU136      0.0297
    121  CG        34.3950   17.5200   44.5640 C.3   136  LEU136      0.0022
    122  CD1       32.9160   17.2320   44.3310 C.3   136  LEU136      0.0001
    123  CD2       35.2450   16.8770   43.4800 C.3   136  LEU136      0.0001
    124  N         33.8580   20.4410   49.8630 N.3   138  PHE138     -0.1228
    125  CA        33.0340   21.0120   50.9300 C.3   138  PHE138      0.1721
    126  C         32.2500   19.8000   51.4500 C.2   138  PHE138      0.2437
    127  O         31.7900   18.9780   50.6650 O.2   138  PHE138     -0.2733
    128  CB        32.0870   22.0780   50.3710 C.3   138  PHE138      0.0547
    129  CG        31.4580   22.9460   51.4280 C.ar  138  PHE138     -0.0202
    130  CD1       32.2380   23.8090   52.1890 C.ar  138  PHE138     -0.0042
    131  CD2       30.0870   22.9080   51.6560 C.ar  138  PHE138     -0.0042
    132  CE1       31.6620   24.6260   53.1630 C.ar  138  PHE138     -0.0003
    133  CE2       29.5030   23.7180   52.6270 C.ar  138  PHE138     -0.0003
    134  CZ        30.2910   24.5770   53.3800 C.ar  138  PHE138     -0.0000
    135  N         32.0870   19.6770   52.7780 N.am  139  PRO139     -0.2718
    136  CA        31.3750   18.5570   53.4030 C.3   139  PRO139      0.1535
    137  C         29.8560   18.4150   53.2550 C.2   139  PRO139      0.2598
    138  O         29.2240   17.7510   54.0740 O.2   139  PRO139     -0.2715
    139  CB        31.7960   18.6660   54.8660 C.3   139  PRO139      0.0310
    140  CG        31.8690   20.1360   55.0670 C.3   139  PRO139      0.0237
    141  CD        32.5870   20.6130   53.8020 C.3   139  PRO139      0.0939
    142  N         29.2650   19.0090   52.2250 N.am  140  ILE140     -0.1964
    143  CA        27.8190   18.8890   52.0400 C.3   140  ILE140      0.1727
    144  C         27.4630   18.4360   50.6290 C.2   140  ILE140      0.2616
    145  O         27.9500   18.9830   49.6430 O.2   140  ILE140     -0.2715
    146  CB        27.0940   20.2190   52.3230 C.3   140  ILE140      0.0290
    147  CG1       27.2680   20.6060   53.7930 C.3   140  ILE140      0.0022
    148  CG2       25.6110   20.0830   51.9940 C.3   140  ILE140      0.0023
    149  CD1       26.6490   21.9470   54.1450 C.3   140  ILE140      0.0001
    150  N         26.5990   17.4360   50.5460 N.am  141  TYR141     -0.1960
    151  CA        26.1750   16.9030   49.2630 C.3   141  TYR141      0.1771
    152  C         25.2030   17.8300   48.5430 C.2   141  TYR141      0.2620
    153  O         24.1670   18.2070   49.0920 O.2   141  TYR141     -0.2715
    154  CB        25.5080   15.5400   49.4510 C.3   141  TYR141      0.0574
    155  CG        24.9790   14.9440   48.1640 C.ar  141  TYR141     -0.0198
    156  CD1       25.8140   14.2220   47.3140 C.ar  141  TYR141     -0.0009
    157  CD2       23.6460   15.1280   47.7810 C.ar  141  TYR141     -0.0009
    158  CE1       25.3400   13.6950   46.1160 C.ar  141  TYR141      0.0417
    159  CE2       23.1630   14.6080   46.5810 C.ar  141  TYR141      0.0417
    160  CZ        24.0160   13.8920   45.7550 C.ar  141  TYR141      0.1957
    161  OH        23.5500   13.3680   44.5730 O.3   141  TYR141     -0.2866
    162  N         25.5560   18.1910   47.3140 N.am  142  THR142     -0.1951
    163  CA        24.7240   19.0360   46.4610 C.3   142  THR142      0.1897
    164  C         25.1030   18.7180   45.0180 C.2   142  THR142      0.2313
    165  O         26.1610   19.1330   44.5380 O.2   142  THR142     -0.2863
    166  CB        24.9510   20.5540   46.7070 C.3   142  THR142      0.1794
    167  OG1       26.3220   20.8850   46.4570 O.3   142  THR142     -0.2208
    168  CG2       24.5940   20.9300   48.1360 C.3   142  THR142      0.0378
    169  N         30.4920   18.8400   34.3260 N.3   145  PHE145     -0.1241
    170  CA        31.1250   19.0860   35.6190 C.3   145  PHE145      0.1605
    171  C         32.5520   19.5950   35.4690 C.2   145  PHE145      0.2264
    172  O         33.3580   19.0150   34.7410 O.2   145  PHE145     -0.2867
    173  CB        31.1510   17.8070   36.4610 C.3   145  PHE145      0.0534
    174  CG        31.9290   17.9430   37.7430 C.ar  145  PHE145     -0.0203
    175  CD1       31.3480   18.5150   38.8710 C.ar  145  PHE145     -0.0042
    176  CD2       33.2540   17.5240   37.8130 C.ar  145  PHE145     -0.0042
    177  CE1       32.0770   18.6690   40.0490 C.ar  145  PHE145     -0.0003
    178  CE2       33.9910   17.6750   38.9880 C.ar  145  PHE145     -0.0003
    179  CZ        33.4010   18.2480   40.1060 C.ar  145  PHE145     -0.0000
@<TRIPOS>BOND
     1   169   170    1
     2   172   171    2
     3   171   170    1
     4   170   173    1
     5   173   174    1
     6   174   176   ar
     7   174   175   ar
     8   176   178   ar
     9   175   177   ar
    10   178   179   ar
    11   177   179   ar
    12    53    54    1
    13    60    58    1
    14    54    57    1
    15    54    55    1
    16    57    58    1
    17    57    59    1
    18   123   121    1
    19    55    56    2
    20    55    61   am
    21   122   121    1
    22    61    62    1
    23   165   164    2
    24   121   120    1
    25   161   160    1
    26   120   117    1
    27   110   109    2
    28   164   163    1
    29    68    69    1
    30    63    62    1
    31    63    64    2
    32   117   116    1
    33   117   118    1
    34   116   113   am
    35   160   158   ar
    36   160   159   ar
    37    62    65    1
    38   109   108    1
    39   109   111   am
    40   158   156   ar
    41   108   107    1
    42    65    67    1
    43    65    66    1
    44   167   166    1
    45   163   166    1
    46   163   162    1
    47   112   113    1
    48   112   111    1
    49   112   115    1
    50   113   114    2
    51    69    72    1
    52    69    70    1
    53   159   157   ar
    54   166   168    1
    55   118   119    2
    56   156   155   ar
    57   162   152   am
    58    72    73    1
    59    70    78   am
    60    70    71    2
    61    78    79    1
    62    80    79    1
    63    80    81    2
    64   157   155   ar
    65   155   154    1
    66    82    79    1
    67    82    83    1
    68   152   153    2
    69   152   151    1
    70    73    74   ar
    71    73    75   ar
    72    83    84    1
    73    87    88    1
    74    74    76   ar
    75   151   154    1
    76   151   150    1
    77   145   144    2
    78   124   125    1
    79    75    77   ar
    80    89    88    1
    81    89    90    2
    82    84    86   ar
    83    84    85   ar
    84    88    91    1
    85   128   125    1
    86   128   129    1
    87    76    77   ar
    88   150   144   am
    89   144   143    1
    90    31    30    1
    91   127   126    2
    92    37    34    1
    93   125   126    1
    94    52    49    1
    95    91    92    1
    96   129   131   ar
    97   129   130   ar
    98   126   135   am
    99    29    30    1
   100    29    26    1
   101    32    30    1
   102   131   133   ar
   103    28    27    2
   104    92    94   ar
   105    92    93   ar
   106    94    96   ar
   107   148   146    1
   108   143   142    1
   109   143   146    1
   110   130   132   ar
   111   142   137   am
   112    27    26    1
   113    27    33   am
   114   146   147    1
   115    34    33    1
   116    34    35    1
   117    93    95   ar
   118    41    40    2
   119    96    95   ar
   120    49    48    1
   121    49    50    1
   122    26    25    1
   123   133   134   ar
   124   135   136    1
   125   135   141    1
   126    40    48   am
   127    40    39    1
   128    35    38   am
   129    35    36    2
   130    38    39    1
   131   132   134   ar
   132   137   136    1
   133   137   138    2
   134   136   139    1
   135    50    51    2
   136   104   106   ar
   137   104   102   ar
   138    99    98    1
   139    99   100    2
   140    39    42    1
   141    98    97    1
   142    98   101    1
   143   147   149    1
   144   141   140    1
   145    25    19   am
   146   106   105   ar
   147   102   101    1
   148   102   103   ar
   149    20    19    2
   150   139   140    1
   151    19    18    1
   152    16    15    2
   153    42    43    1
   154   105   103   ar
   155    45    43   ar
   156    45    47   ar
   157    43    44   ar
   158    13    14    1
   159    47    46   ar
   160    44    46   ar
   161    15    17   am
   162    15    14    1
   163    18    17    1
   164    18    21    1
   165    21    22    1
   166    12    11    1
   167    11     9   ar
   168    11    10   ar
   169     9     7   ar
   170    22    24    1
   171    22    23    1
   172    10     8   ar
   173     4     3    2
   174     7     6   ar
   175     8     6   ar
   176     6     5    1
   177     5     2    1
   178     3     2    1
   179     2     1    1
