@<TRIPOS>MOLECULE
tmp/1cxyA00.pdb
 212 208 0 0 0
SMALL
GASTEIGER

@<TRIPOS>ATOM
      1  N         30.8410   17.2570   23.2810 N.3    21  MET21      -0.1245
      2  CA        30.3180   16.4680   22.1610 C.3    21  MET21       0.1570
      3  C         31.3360   15.4060   21.7530 C.2    21  MET21       0.2261
      4  O         32.5040   15.5950   22.0430 O.2    21  MET21      -0.2867
      5  CB        30.0880   17.2790   20.8820 C.3    21  MET21       0.0387
      6  CG        29.0310   18.3400   21.0540 C.3    21  MET21       0.0595
      7  SD        28.7720   19.1980   19.4860 S.3    21  MET21      -0.1393
      8  CE        27.7280   20.5140   20.1480 C.3    21  MET21       0.0692
      9  N         32.7280   13.7580   18.2450 N.3    23  ILE23      -0.1245
     10  CA        32.7370   13.9400   16.7820 C.3    23  ILE23       0.1561
     11  C         33.9250   13.1360   16.2400 C.2    23  ILE23       0.2260
     12  O         35.0380   13.2980   16.7490 O.2    23  ILE23      -0.2867
     13  CB        32.9000   15.4020   16.3580 C.3    23  ILE23       0.0252
     14  CG1       31.6790   16.2350   16.7540 C.3    23  ILE23       0.0019
     15  CG2       33.1240   15.5520   14.8480 C.3    23  ILE23       0.0019
     16  CD1       31.9230   17.7360   16.7410 C.3    23  ILE23       0.0001
     17  N         33.0790   21.8940   24.5840 N.3    30  LEU30      -0.1245
     18  CA        32.7480   23.0800   23.8030 C.3    30  LEU30       0.1561
     19  C         32.0280   24.1800   24.5450 C.2    30  LEU30       0.2260
     20  O         31.6190   25.2060   23.9710 O.2    30  LEU30      -0.2867
     21  CB        31.9140   22.5670   22.6080 C.3    30  LEU30       0.0270
     22  CG        32.7420   21.7930   21.5680 C.3    30  LEU30       0.0019
     23  CD1       31.8830   20.8730   20.7070 C.3    30  LEU30       0.0001
     24  CD2       33.5070   22.7720   20.6780 C.3    30  LEU30       0.0001
     25  N         33.0190   27.6710   23.7990 N.3    33  TYR33      -0.1241
     26  CA        32.7580   28.0630   22.4040 C.3    33  TYR33       0.1605
     27  C         31.3080   28.3810   22.1210 C.2    33  TYR33       0.2264
     28  O         31.0250   29.2010   21.2450 O.2    33  TYR33      -0.2867
     29  CB        33.2740   26.9510   21.4710 C.3    33  TYR33       0.0534
     30  CG        33.1030   27.3630   20.0160 C.ar   33  TYR33      -0.0201
     31  CD1       32.0430   26.8710   19.2660 C.ar   33  TYR33      -0.0009
     32  CD2       33.9270   28.3380   19.4800 C.ar   33  TYR33      -0.0009
     33  CE1       31.8540   27.3230   17.9670 C.ar   33  TYR33       0.0417
     34  CE2       33.7450   28.7840   18.1780 C.ar   33  TYR33       0.0417
     35  CZ        32.6950   28.2750   17.4400 C.ar   33  TYR33       0.1957
     36  OH        32.5140   28.7380   16.1570 O.3    33  TYR33      -0.2866
     37  N         29.4930   30.5020   18.4510 N.3    37  HIS37      -0.1227
     38  CA        29.1670   29.7940   17.2110 C.3    37  HIS37       0.1737
     39  C         28.4010   30.6920   16.2360 C.2    37  HIS37       0.2438
     40  O         27.3840   31.2540   16.6320 O.2    37  HIS37      -0.2733
     41  CB        28.3150   28.5620   17.5520 C.3    37  HIS37       0.0758
     42  CG        28.0430   27.6820   16.3680 C.ar   37  HIS37       0.0818
     43  ND1       26.7880   27.3350   15.9240 N.ar   37  HIS37      -0.2268
     44  CD2       28.9280   27.1100   15.5140 C.ar   37  HIS37       0.1154
     45  CE1       26.8920   26.5670   14.8550 C.ar   37  HIS37       0.1986
     46  NE2       28.1730   26.4170   14.5840 N.ar   37  HIS37      -0.2212
     47  N         28.8570   30.7960   15.0060 N.am   38  PRO38      -0.2718
     48  CA        28.1760   31.5950   13.9840 C.3    38  PRO38       0.1535
     49  C         26.8830   30.9180   13.5450 C.2    38  PRO38       0.2599
     50  O         26.5690   29.7790   13.8960 O.2    38  PRO38      -0.2715
     51  CB        29.1630   31.6520   12.8280 C.3    38  PRO38       0.0310
     52  CG        30.4730   31.2030   13.3940 C.3    38  PRO38       0.0237
     53  CD        30.0680   30.1640   14.4310 C.3    38  PRO38       0.0939
     54  N         26.0710   31.6190   12.7510 N.am   39  GLY39      -0.1941
     55  CA        24.8320   31.0560   12.2350 C.3    39  GLY39       0.1998
     56  C         23.6270   31.2790   13.1340 C.2    39  GLY39       0.2480
     57  O         23.6490   31.9610   14.1640 O.2    39  GLY39      -0.2729
     58  N         22.5260   30.6330   12.7780 N.am   40  PRO40      -0.2726
     59  CA        21.2700   30.7380   13.5090 C.3    40  PRO40       0.1402
     60  C         21.4560   30.3790   14.9700 C.2    40  PRO40       0.2269
     61  O         22.1280   29.4060   15.3070 O.2    40  PRO40      -0.2865
     62  CB        20.3210   29.8050   12.7750 C.3    40  PRO40       0.0296
     63  CG        20.8740   29.7840   11.3800 C.3    40  PRO40       0.0237
     64  CD        22.3730   29.7550   11.5800 C.3    40  PRO40       0.0939
     65  N         21.8960   26.3820   17.2130 N.3    43  MET43      -0.1230
     66  CA        21.9840   25.1530   16.4430 C.3    43  MET43       0.1702
     67  C         22.8970   24.0860   17.0110 C.2    43  MET43       0.2592
     68  O         22.7740   22.8710   16.8510 O.2    43  MET43      -0.2718
     69  CB        22.5430   25.5480   15.0370 C.3    43  MET43       0.0401
     70  CG        21.3910   26.2670   14.3260 C.3    43  MET43       0.0596
     71  SD        20.3780   24.9980   13.5350 S.3    43  MET43      -0.1393
     72  CE        21.5640   24.2220   12.4530 C.3    43  MET43       0.0692
     73  N         23.9370   24.5780   17.6850 N.am   44  MET44      -0.1979
     74  CA        24.9020   23.6310   18.2700 C.3    44  MET44       0.1605
     75  C         24.3590   23.0580   19.5490 C.2    44  MET44       0.2287
     76  O         24.6040   21.9000   19.9140 O.2    44  MET44      -0.2864
     77  CB        26.1780   24.4670   18.4010 C.3    44  MET44       0.0413
     78  CG        27.4420   23.6720   18.6320 C.3    44  MET44       0.0598
     79  SD        28.7760   24.8650   18.9300 S.3    44  MET44      -0.1393
     80  CE        29.9320   23.7890   19.7710 C.3    44  MET44       0.0692
     81  N         23.0650   19.4510   20.1170 N.3    47  TRP47      -0.1241
     82  CA        24.0270   18.3580   20.1310 C.3    47  TRP47       0.1605
     83  C         24.8660   18.2860   21.4010 C.2    47  TRP47       0.2264
     84  O         25.6480   17.3270   21.5110 O.2    47  TRP47      -0.2867
     85  CB        24.9550   18.4560   18.8840 C.3    47  TRP47       0.0550
     86  CG        24.0700   18.3680   17.6620 C.ar   47  TRP47       0.0003
     87  CD1       23.5820   19.3730   16.8850 C.ar   47  TRP47       0.0946
     88  CD2       23.4490   17.1590   17.2260 C.ar   47  TRP47       0.0152
     89  NE1       22.6890   18.8560   15.9710 N.ar   47  TRP47      -0.2442
     90  CE2       22.5940   17.5050   16.1460 C.ar   47  TRP47       0.0810
     91  CE3       23.5410   15.8240   17.6250 C.ar   47  TRP47       0.0012
     92  CZ2       21.8480   16.5390   15.4790 C.ar   47  TRP47       0.0191
     93  CZ3       22.7960   14.8610   16.9600 C.ar   47  TRP47       0.0001
     94  CH2       21.9620   15.2440   15.8890 C.ar   47  TRP47       0.0015
     95  N         27.8280   13.6020   17.5510 N.3    52  SER52      -0.1217
     96  CA        27.3180   14.6230   16.6590 C.3    52  SER52       0.1889
     97  C         28.0360   14.6890   15.3120 C.2    52  SER52       0.2288
     98  O         28.0100   15.7420   14.6730 O.2    52  SER52      -0.2866
     99  CB        27.5120   15.9780   17.3730 C.3    52  SER52       0.2089
    100  OG        26.9250   15.9580   18.6760 O.3    52  SER52      -0.2183
    101  N         25.8510   15.9520   12.1730 N.3    55  ALA55      -0.1231
    102  CA        25.5840   17.3890   12.2740 C.3    55  ALA55       0.1694
    103  C         26.8510   18.1830   11.9890 C.2    55  ALA55       0.2592
    104  O         26.7720   19.2220   11.3420 O.2    55  ALA55      -0.2718
    105  CB        25.0540   17.6940   13.6620 C.3    55  ALA55       0.0304
    106  N         28.0040   17.7390   12.4910 N.am   56  TRP56      -0.1976
    107  CA        29.2640   18.4160   12.1880 C.3    56  TRP56       0.1640
    108  C         29.5640   18.4140   10.7030 C.2    56  TRP56       0.2290
    109  O         30.0860   19.3680   10.1150 O.2    56  TRP56      -0.2864
    110  CB        30.4100   17.7790   13.0100 C.3    56  TRP56       0.0576
    111  CG        31.7560   18.2450   12.5290 C.ar   56  TRP56       0.0006
    112  CD1       32.6190   17.4950   11.7750 C.ar   56  TRP56       0.0946
    113  CD2       32.3760   19.5150   12.7240 C.ar   56  TRP56       0.0152
    114  NE1       33.7320   18.2450   11.4590 N.ar   56  TRP56      -0.2442
    115  CE2       33.6160   19.4740   12.0420 C.ar   56  TRP56       0.0810
    116  CE3       32.0360   20.6780   13.4100 C.ar   56  TRP56       0.0012
    117  CZ2       34.4910   20.5560   12.0320 C.ar   56  TRP56       0.0191
    118  CZ3       32.9060   21.7580   13.3900 C.ar   56  TRP56       0.0001
    119  CH2       34.1170   21.6900   12.6990 C.ar   56  TRP56       0.0015
    120  N         26.1690   20.3530    8.8640 N.3    59  LYS59      -0.1231
    121  CA        25.5170   21.5080    9.4480 C.3    59  LYS59       0.1693
    122  C         23.9860   21.2950    9.4570 C.2    59  LYS59       0.2593
    123  O         23.2020   22.2350    9.5360 O.2    59  LYS59      -0.2718
    124  CB        25.8760   22.8230    8.7570 C.3    59  LYS59       0.0285
    125  CG        27.3450   23.2300    8.9800 C.3    59  LYS59       0.0035
    126  CD        27.7040   24.4520    8.1420 C.3    59  LYS59       0.0206
    127  CE        29.1300   24.8900    8.4960 C.3    59  LYS59       0.1093
    128  NZ        29.7070   25.7930    7.4510 N.3    59  LYS59      -0.1314
    129  N         23.5430   20.0570    9.3070 N.am   60  SER60      -0.1938
    130  CA        22.1610   19.6430    9.2420 C.3    60  SER60       0.2055
    131  C         21.4180   20.1380    8.0030 C.2    60  SER60       0.2643
    132  O         20.2230   19.8450    7.9300 O.2    60  SER60      -0.2714
    133  CB        21.3720   20.0150   10.5110 C.3    60  SER60       0.2130
    134  OG        21.8390   19.1490   11.5730 O.3    60  SER60      -0.2179
    135  N         22.0550   20.7120    7.0010 N.am   61  TYR61      -0.1973
    136  CA        21.3350   21.0830    5.7760 C.3    61  TYR61       0.1639
    137  C         22.1660   20.7490    4.5400 C.2    61  TYR61       0.2290
    138  O         21.6160   20.8180    3.4400 O.2    61  TYR61      -0.2864
    139  CB        20.9430   22.5370    5.7980 C.3    61  TYR61       0.0560
    140  CG        22.0140   23.5760    5.5490 C.ar   61  TYR61      -0.0198
    141  CD1       22.0480   24.2860    4.3580 C.ar   61  TYR61      -0.0009
    142  CD2       22.9590   23.8730    6.5300 C.ar   61  TYR61      -0.0009
    143  CE1       23.0020   25.2610    4.1420 C.ar   61  TYR61       0.0417
    144  CE2       23.9090   24.8520    6.3200 C.ar   61  TYR61       0.0417
    145  CZ        23.9360   25.5310    5.1230 C.ar   61  TYR61       0.1957
    146  OH        24.8500   26.5330    4.8660 O.3    61  TYR61      -0.2866
    147  N         26.0440   21.4610    4.1550 N.3    63  GLU63      -0.1245
    148  CA        27.2830   22.2060    3.9030 C.3    63  GLU63       0.1567
    149  C         28.2760   21.7740    4.9720 C.2    63  GLU63       0.2260
    150  O         27.8920   21.6800    6.1250 O.2    63  GLU63      -0.2867
    151  CB        27.0690   23.7070    4.0210 C.3    63  GLU63       0.0388
    152  CG        28.2800   24.5280    3.5220 C.3    63  GLU63       0.1160
    153  CD        28.1400   25.0720    2.1240 C.2    63  GLU63       0.3649
    154  OE1       27.4100   24.5780    1.2700 O.co2  63  GLU63      -0.2457
    155  OE2       28.8990   26.1330    1.9340 O.co2  63  GLU63      -0.2457
    156  N         31.6090   22.0570    7.5420 N.3    65  HIS65      -0.1226
    157  CA        32.3590   23.1020    8.2220 C.3    65  HIS65       0.1752
    158  C         33.6870   23.3140    7.4750 C.2    65  HIS65       0.2596
    159  O         34.2850   22.3930    6.9140 O.2    65  HIS65      -0.2718
    160  CB        32.6640   22.7850    9.6870 C.3    65  HIS65       0.0759
    161  CG        31.4600   23.0620   10.5530 C.ar   65  HIS65       0.0818
    162  ND1       30.5200   22.0820   10.7940 N.ar   65  HIS65      -0.2268
    163  CD2       31.0680   24.1800   11.2000 C.ar   65  HIS65       0.1154
    164  CE1       29.5710   22.5810   11.5730 C.ar   65  HIS65       0.1986
    165  NE2       29.8770   23.8360   11.8480 N.ar   65  HIS65      -0.2212
    166  N         34.0840   24.5810    7.5050 N.am   66  SER66      -0.1952
    167  CA        35.3270   24.9290    6.7980 C.3    66  SER66       0.1924
    168  C         36.5450   24.3490    7.5060 C.2    66  SER66       0.2314
    169  O         36.4830   23.8740    8.6400 O.2    66  SER66      -0.2863
    170  CB        35.4540   26.4470    6.7640 C.3    66  SER66       0.2116
    171  OG        35.7380   26.9610    8.0490 O.3    66  SER66      -0.2180
    172  N         38.9190   26.2810    8.5270 N.3    68  LEU68      -0.1231
    173  CA        39.0410   27.1820    9.6570 C.3    68  LEU68       0.1693
    174  C         38.2410   26.6280   10.8410 C.2    68  LEU68       0.2591
    175  O         38.7190   26.5590   11.9730 O.2    68  LEU68      -0.2718
    176  CB        38.6020   28.5990    9.3120 C.3    68  LEU68       0.0284
    177  CG        38.5200   29.6480   10.4120 C.3    68  LEU68       0.0019
    178  CD1       38.4820   31.0550    9.8040 C.3    68  LEU68       0.0001
    179  CD2       37.2570   29.5050   11.2560 C.3    68  LEU68       0.0001
    180  N         36.9740   26.2790   10.5870 N.am   69  ALA69      -0.1980
    181  CA        36.1410   25.7100   11.6560 C.3    69  ALA69       0.1597
    182  C         36.7270   24.4280   12.2210 C.2    69  ALA69       0.2287
    183  O         36.6220   24.2120   13.4390 O.2    69  ALA69      -0.2864
    184  CB        34.7230   25.4670   11.1410 C.3    69  ALA69       0.0319
    185  N         39.3570   25.3110   14.6440 N.3    72  LEU72      -0.1231
    186  CA        38.7580   25.8210   15.8710 C.3    72  LEU72       0.1693
    187  C         38.2020   24.6680   16.7020 C.2    72  LEU72       0.2591
    188  O         38.3930   24.6600   17.9240 O.2    72  LEU72      -0.2718
    189  CB        37.6480   26.8250   15.5790 C.3    72  LEU72       0.0284
    190  CG        38.0120   28.1480   14.9100 C.3    72  LEU72       0.0019
    191  CD1       36.7170   28.9430   14.7180 C.3    72  LEU72       0.0001
    192  CD2       38.9930   28.9430   15.7570 C.3    72  LEU72       0.0001
    193  N         37.5640   23.6740   16.0800 N.am   73  LEU73      -0.1980
    194  CA        37.0330   22.5280   16.8210 C.3    73  LEU73       0.1596
    195  C         38.1530   21.8010   17.5650 C.2    73  LEU73       0.2287
    196  O         38.0140   21.4780   18.7320 O.2    73  LEU73      -0.2864
    197  CB        36.3110   21.5400   15.8870 C.3    73  LEU73       0.0297
    198  CG        35.9350   20.1730   16.4970 C.3    73  LEU73       0.0022
    199  CD1       34.9640   20.3370   17.6790 C.3    73  LEU73       0.0001
    200  CD2       35.3240   19.2280   15.4770 C.3    73  LEU73       0.0001
    201  N         39.2760   22.5410   21.1880 N.3    76  TYR76      -0.1241
    202  CA        38.4630   22.1530   22.3530 C.3    76  TYR76       0.1605
    203  C         38.5540   20.6660   22.6330 C.2    76  TYR76       0.2264
    204  O         37.8440   20.1420   23.4910 O.2    76  TYR76      -0.2867
    205  CB        37.0050   22.5900   22.0700 C.3    76  TYR76       0.0534
    206  CG        36.9300   24.0970   21.9390 C.ar   76  TYR76      -0.0201
    207  CD1       36.8120   24.6560   20.6620 C.ar   76  TYR76      -0.0009
    208  CD2       37.0530   24.9200   23.0490 C.ar   76  TYR76      -0.0009
    209  CE1       36.7800   26.0280   20.5170 C.ar   76  TYR76       0.0417
    210  CE2       37.0100   26.3060   22.9050 C.ar   76  TYR76       0.0417
    211  CZ        36.8970   26.8300   21.6260 C.ar   76  TYR76       0.1957
    212  OH        36.8830   28.1990   21.4470 O.3    76  TYR76      -0.2866
@<TRIPOS>BOND
     1   154   153   ar
     2   155   153   ar
     3   153   152    1
     4   138   137    2
     5   152   151    1
     6   148   151    1
     7   148   147    1
     8   148   149    1
     9   143   141   ar
    10   143   145   ar
    11   141   140   ar
    12   137   136    1
    13   146   145    1
    14   149   150    2
    15   145   144   ar
    16   140   139    1
    17   140   142   ar
    18   136   139    1
    19   136   135    1
    20   144   142   ar
    21   170   167    1
    22   170   171    1
    23   167   166    1
    24   167   168    1
    25   159   158    2
    26   135   131   am
    27   128   127    1
    28   158   166   am
    29   158   157    1
    30   168   169    2
    31   156   157    1
    32   132   131    2
    33   131   130    1
    34   126   127    1
    35   126   125    1
    36   157   160    1
    37   172   173    1
    38   124   125    1
    39   124   121    1
    40   120   121    1
    41   130   129    1
    42   130   133    1
    43   129   122   am
    44   176   173    1
    45   176   177    1
    46   121   122    1
    47   122   123    2
    48   173   174    1
    49   160   161    1
    50   178   177    1
    51   109   108    2
    52   177   179    1
    53   133   134    1
    54   161   162   ar
    55   161   163   ar
    56   180   174   am
    57   180   181    1
    58   108   107    1
    59   162   164   ar
    60   174   175    2
    61   184   181    1
    62   163   165   ar
    63   104   103    2
    64    63    64    1
    65    63    62    1
    66   114   112   ar
    67   114   115   ar
    68   164   165   ar
    69    64    58    1
    70   181   182    1
    71   112   111   ar
    72   103   102    1
    73   103   106   am
    74   117   115   ar
    75   117   119   ar
    76   115   113   ar
    77   101   102    1
    78   107   106    1
    79   107   110    1
    80   182   183    2
    81    55    54    1
    82    55    56    1
    83   102   105    1
    84    72    71    1
    85   111   113   ar
    86   111   110    1
    87   119   118   ar
    88   113   116   ar
    89    54    49   am
    90    62    59    1
    91    58    56   am
    92    58    59    1
    93    51    52    1
    94    51    48    1
    95    56    57    2
    96   118   116   ar
    97    52    53    1
    98    59    60    1
    99    71    70    1
   100    49    50    2
   101    49    48    1
   102    48    47    1
   103    70    69    1
   104    53    47    1
   105    46    45   ar
   106    46    44   ar
   107   185   186    1
   108    98    97    2
   109   191   190    1
   110    15    13    1
   111    45    43   ar
   112   190   189    1
   113   190   192    1
   114    60    61    2
   115    47    39   am
   116    69    66    1
   117    97    96    1
   118   200   198    1
   119    92    94   ar
   120    92    90   ar
   121    44    42   ar
   122   189   186    1
   123   186   187    1
   124   197   198    1
   125   197   194    1
   126    94    93   ar
   127    43    42   ar
   128    89    90   ar
   129    89    87   ar
   130   193   187   am
   131   193   194    1
   132    90    88   ar
   133    36    35    1
   134    39    40    2
   135    39    38    1
   136    11    12    2
   137    11    10    1
   138    13    14    1
   139    13    10    1
   140    42    41    1
   141    66    67    1
   142    66    65    1
   143   198   199    1
   144    96    99    1
   145    96    95    1
   146   187   188    2
   147    16    14    1
   148    10     9    1
   149   194   195    1
   150    68    67    2
   151    87    86   ar
   152    93    91   ar
   153    67    73   am
   154    38    41    1
   155    38    37    1
   156    88    91   ar
   157    88    86   ar
   158    99   100    1
   159    35    33   ar
   160    35    34   ar
   161   195   196    2
   162    86    85    1
   163    73    74    1
   164    33    31   ar
   165    34    32   ar
   166    74    77    1
   167    74    75    1
   168    77    78    1
   169    78    79    1
   170    85    82    1
   171    79    80    1
   172    31    30   ar
   173    32    30   ar
   174     7     8    1
   175     7     6    1
   176    75    76    2
   177    30    29    1
   178    81    82    1
   179    82    83    1
   180   209   207   ar
   181   209   211   ar
   182   207   206   ar
   183    24    22    1
   184    23    22    1
   185     5     6    1
   186     5     2    1
   187   201   202    1
   188    28    27    2
   189    83    84    2
   190   212   211    1
   191    29    26    1
   192    22    21    1
   193   211   210   ar
   194     3     4    2
   195     3     2    1
   196   206   205    1
   197   206   208   ar
   198   205   202    1
   199    27    26    1
   200     2     1    1
   201   202   203    1
   202    26    25    1
   203    21    18    1
   204   203   204    2
   205   210   208   ar
   206    18    19    1
   207    18    17    1
   208    20    19    2
