@<TRIPOS>MOLECULE
tmp/1cy1A01.pdb
 114 109 0 0 0
SMALL
GASTEIGER

@<TRIPOS>ATOM
      1  N         28.9270   28.9620   20.8090 N.3   255  GLY255     -0.1225
      2  CA        29.7750   28.0410   21.5340 C.3   255  GLY255      0.1811
      3  C         29.2460   27.8350   22.9380 C.2   255  GLY255      0.2280
      4  O         28.3080   28.5100   23.3760 O.2   255  GLY255     -0.2866
      5  N         31.9330   29.6040   28.8020 N.3   258  PHE258     -0.1241
      6  CA        33.3400   29.3730   29.1040 C.3   258  PHE258      0.1605
      7  C         33.7120   28.4780   30.2570 C.2   258  PHE258      0.2264
      8  O         32.9980   28.3720   31.2540 O.2   258  PHE258     -0.2867
      9  CB        34.0660   30.6920   29.3720 C.3   258  PHE258      0.0534
     10  CG        34.1230   31.6030   28.2050 C.ar  258  PHE258     -0.0203
     11  CD1       34.6660   31.1810   27.0050 C.ar  258  PHE258     -0.0042
     12  CD2       33.6830   32.9190   28.3220 C.ar  258  PHE258     -0.0042
     13  CE1       34.7740   32.0630   25.9310 C.ar  258  PHE258     -0.0003
     14  CE2       33.7890   33.7940   27.2680 C.ar  258  PHE258     -0.0003
     15  CZ        34.3370   33.3640   26.0710 C.ar  258  PHE258     -0.0000
     16  N         39.8430   32.7390   24.4550 N.3   266  ALA266     -0.1245
     17  CA        39.0360   33.8240   23.9180 C.3   266  ALA266      0.1562
     18  C         39.5220   35.1930   24.4040 C.2   266  ALA266      0.2260
     19  O         39.5170   36.1630   23.6510 O.2   266  ALA266     -0.2867
     20  CB        37.5790   33.6110   24.2810 C.3   266  ALA266      0.0290
     21  N         40.5090   37.5360   21.4300 N.3   270  ARG270     -0.1231
     22  CA        39.6420   38.6880   21.2520 C.3   270  ARG270      0.1694
     23  C         40.0250   39.9430   22.0250 C.2   270  ARG270      0.2591
     24  O         39.6390   41.0430   21.6370 O.2   270  ARG270     -0.2718
     25  CB        38.2080   38.2890   21.6030 C.3   270  ARG270      0.0321
     26  CG        37.9280   36.8240   21.2980 C.3   270  ARG270      0.0489
     27  CD        36.5370   36.5820   20.7540 C.3   270  ARG270      0.2205
     28  NE        36.3850   35.1960   20.3200 N.pl3 270  ARG270     -0.0865
     29  CZ        37.1560   34.6080   19.4050 C.cat 270  ARG270      0.5346
     30  NH1       38.1380   35.2830   18.8160 N.pl3 270  ARG270      0.1354
     31  NH2       36.9570   33.3360   19.0830 N.pl3 270  ARG270      0.1354
     32  N         40.7780   39.7990   23.1100 N.am  271  LEU271     -0.1980
     33  CA        41.1470   40.9690   23.9060 C.3   271  LEU271      0.1596
     34  C         42.6450   41.1820   24.0600 C.2   271  LEU271      0.2287
     35  O         43.0730   42.1890   24.6300 O.2   271  LEU271     -0.2864
     36  CB        40.5080   40.8740   25.2980 C.3   271  LEU271      0.0297
     37  CG        38.9860   40.7360   25.3030 C.3   271  LEU271      0.0022
     38  CD1       38.4880   40.4190   26.7010 C.3   271  LEU271      0.0001
     39  CD2       38.3730   42.0240   24.7710 C.3   271  LEU271      0.0001
     40  N         33.0180   39.9140   27.8170 N.3   361  LEU361     -0.1245
     41  CA        33.3260   38.7420   27.0130 C.3   361  LEU361      0.1561
     42  C         32.6160   37.5060   27.5810 C.2   361  LEU361      0.2260
     43  O         32.0280   36.7330   26.8500 O.2   361  LEU361     -0.2867
     44  CB        34.8400   38.5170   26.9910 C.3   361  LEU361      0.0270
     45  CG        35.3430   37.3440   26.1490 C.3   361  LEU361      0.0019
     46  CD1       35.5730   37.8140   24.7310 C.3   361  LEU361      0.0001
     47  CD2       36.6410   36.8050   26.7360 C.3   361  LEU361      0.0001
     48  N         28.6690   37.8670   27.1430 N.3   364  ARG364     -0.1231
     49  CA        28.2140   37.6400   25.7800 C.3   364  ARG364      0.1694
     50  C         28.2510   36.1780   25.3630 C.2   364  ARG364      0.2591
     51  O         27.3430   35.7010   24.6950 O.2   364  ARG364     -0.2718
     52  CB        29.0440   38.4760   24.8120 C.3   364  ARG364      0.0321
     53  CG        29.1610   39.8920   25.2790 C.3   364  ARG364      0.0489
     54  CD        29.2750   40.8820   24.1650 C.3   364  ARG364      0.2205
     55  NE        30.5790   40.9080   23.5320 N.pl3 364  ARG364     -0.0865
     56  CZ        31.1530   42.0300   23.1090 C.cat 364  ARG364      0.5346
     57  NH1       30.5280   43.1870   23.2810 N.pl3 364  ARG364      0.1354
     58  NH2       32.3190   41.9940   22.4730 N.pl3 364  ARG364      0.1354
     59  N         29.3010   35.4750   25.7630 N.am  365  GLN365     -0.1979
     60  CA        29.4500   34.0720   25.4130 C.3   365  GLN365      0.1601
     61  C         28.3230   33.3380   26.1280 C.2   365  GLN365      0.2287
     62  O         27.6860   32.4510   25.5710 O.2   365  GLN365     -0.2864
     63  CB        30.8240   33.5760   25.8860 C.3   365  GLN365      0.0394
     64  CG        31.1600   32.1230   25.5730 C.3   365  GLN365      0.0908
     65  CD        31.3690   31.8570   24.0960 C.2   365  GLN365      0.2608
     66  OE1       31.7550   32.7440   23.3380 O.2   365  GLN365     -0.2717
     67  NE2       31.1260   30.6200   23.6830 N.am  365  GLN365     -0.0878
     68  N         27.2460   33.3440    1.1950 N.3   395  ARG395     -0.1245
     69  CA        26.0900   33.1050    2.0310 C.3   395  ARG395      0.1563
     70  C         25.5560   34.4310    2.5050 C.2   395  ARG395      0.2260
     71  O         26.3050   35.3970    2.6500 O.2   395  ARG395     -0.2867
     72  CB        26.4690   32.2580    3.2430 C.3   395  ARG395      0.0307
     73  CG        27.3930   32.9700    4.1950 C.3   395  ARG395      0.0489
     74  CD        27.7050   32.1350    5.4240 C.3   395  ARG395      0.2205
     75  NE        28.6660   32.8280    6.2750 N.pl3 395  ARG395     -0.0865
     76  CZ        29.1250   32.3720    7.4360 C.cat 395  ARG395      0.5346
     77  NH1       28.7160   31.2020    7.9140 N.pl3 395  ARG395      0.1354
     78  NH2       29.9970   33.0980    8.1230 N.pl3 395  ARG395      0.1354
     79  N         22.1830   33.9610   17.7980 N.3   402  TRP402     -0.1227
     80  CA        23.1550   34.2890   18.8280 C.3   402  TRP402      0.1737
     81  C         24.1320   35.4160   18.4620 C.2   402  TRP402      0.2596
     82  O         24.6500   36.0910   19.3540 O.2   402  TRP402     -0.2718
     83  CB        23.9620   33.0440   19.2120 C.3   402  TRP402      0.0564
     84  CG        24.8960   32.5790   18.1330 C.ar  402  TRP402      0.0003
     85  CD1       24.5970   31.7530   17.0840 C.ar  402  TRP402      0.0946
     86  CD2       26.2790   32.9290   17.9860 C.ar  402  TRP402      0.0152
     87  NE1       25.7090   31.5640   16.2970 N.ar  402  TRP402     -0.2442
     88  CE2       26.7560   32.2720   16.8280 C.ar  402  TRP402      0.0810
     89  CE3       27.1650   33.7340   18.7220 C.ar  402  TRP402      0.0012
     90  CZ2       28.0830   32.3950   16.3850 C.ar  402  TRP402      0.0191
     91  CZ3       28.4810   33.8550   18.2820 C.ar  402  TRP402      0.0001
     92  CH2       28.9280   33.1870   17.1220 C.ar  402  TRP402      0.0015
     93  N         24.4020   35.6330   17.1760 N.am  403  THR403     -0.1953
     94  CA        25.3410   36.6980   16.8420 C.3   403  THR403      0.1897
     95  C         24.7880   38.0860   17.1480 C.2   403  THR403      0.2313
     96  O         25.5100   39.0790   17.0550 O.2   403  THR403     -0.2863
     97  CB        25.7880   36.6590   15.3680 C.3   403  THR403      0.1794
     98  OG1       24.6810   36.9700   14.5130 O.3   403  THR403     -0.2208
     99  CG2       26.3520   35.2750   15.0210 C.3   403  THR403      0.0378
    100  N         26.8140   39.8950   19.7600 N.3   406  MET406     -0.1231
    101  CA        28.1850   40.2590   19.4370 C.3   406  MET406      0.1687
    102  C         28.1730   41.5800   18.6740 C.2   406  MET406      0.2434
    103  O         27.1610   41.9490   18.0910 O.2   406  MET406     -0.2733
    104  CB        28.8270   39.1580   18.5990 C.3   406  MET406      0.0400
    105  CG        28.7090   37.7820   19.2360 C.3   406  MET406      0.0596
    106  SD        29.4740   37.7030   20.8690 S.3   406  MET406     -0.1393
    107  CE        29.1750   35.9670   21.2650 C.3   406  MET406      0.0692
    108  N         29.2940   42.3210   18.6840 N.am  407  PRO407     -0.2729
    109  CA        29.3270   43.5990   17.9670 C.3   407  PRO407      0.1401
    110  C         28.8300   43.5040   16.5360 C.2   407  PRO407      0.2269
    111  O         28.8910   42.4450   15.9080 O.2   407  PRO407     -0.2865
    112  CB        30.7980   43.9960   18.0430 C.3   407  PRO407      0.0296
    113  CG        31.1830   43.4950   19.4010 C.3   407  PRO407      0.0237
    114  CD        30.5510   42.1060   19.4210 C.3   407  PRO407      0.0939
@<TRIPOS>BOND
     1    68    69    1
     2    69    70    1
     3    69    72    1
     4    70    71    2
     5    72    73    1
     6    73    74    1
     7    74    75    1
     8    75    76    2
     9    76    77    1
    10    76    78    1
    11    98    97    1
    12    99    97    1
    13    97    94    1
    14   111   110    2
    15    87    88   ar
    16    87    85   ar
    17    90    88   ar
    18    90    92   ar
    19   110   109    1
    20    88    86   ar
    21    94    95    1
    22    94    93    1
    23    96    95    2
    24    85    84   ar
    25    92    91   ar
    26    93    81   am
    27    79    80    1
    28   109   112    1
    29   109   108    1
    30    86    84   ar
    31    86    89   ar
    32   112   113    1
    33   103   102    2
    34    84    83    1
    35    91    89   ar
    36    81    80    1
    37    81    82    2
    38   104   105    1
    39   104   101    1
    40   102   108   am
    41   102   101    1
    42   108   114    1
    43    30    29    1
    44    80    83    1
    45    31    29    1
    46   105   106    1
    47   113   114    1
    48    29    28    2
    49   101   100    1
    50    28    27    1
    51    27    26    1
    52     1     2    1
    53   106   107    1
    54    22    21    1
    55    22    25    1
    56    22    23    1
    57    26    25    1
    58     2     3    1
    59    24    23    2
    60    23    32   am
    61    58    56    1
    62     3     4    2
    63    56    57    1
    64    56    55    2
    65    32    33    1
    66    66    65    2
    67    55    54    1
    68    19    18    2
    69    67    65   am
    70    33    34    1
    71    33    36    1
    72    17    20    1
    73    17    18    1
    74    17    16    1
    75    34    35    2
    76    65    64    1
    77    54    53    1
    78    51    50    2
    79    46    45    1
    80    39    37    1
    81    52    53    1
    82    52    49    1
    83    36    37    1
    84    37    38    1
    85    50    59   am
    86    50    49    1
    87    60    59    1
    88    60    63    1
    89    60    61    1
    90    62    61    2
    91    64    63    1
    92    49    48    1
    93    13    15   ar
    94    13    11   ar
    95    15    14   ar
    96    45    47    1
    97    45    44    1
    98    43    42    2
    99    44    41    1
   100    11    10   ar
   101    41    42    1
   102    41    40    1
   103    14    12   ar
   104    10    12   ar
   105    10     9    1
   106     5     6    1
   107     6     9    1
   108     6     7    1
   109     7     8    2
