@<TRIPOS>MOLECULE
tmp/1cy6A00.pdb
 155 148 0 0 0
SMALL
GASTEIGER

@<TRIPOS>ATOM
      1  N         37.2080   27.1730   47.5670 N.3    89  LEU89      -0.1231
      2  CA        36.7930   25.7880   47.3660 C.3    89  LEU89       0.1693
      3  C         37.7520   24.7400   46.7930 C.2    89  LEU89       0.2592
      4  O         37.4340   23.5460   46.8380 O.2    89  LEU89      -0.2718
      5  CB        35.5080   25.7780   46.5330 C.3    89  LEU89       0.0284
      6  CG        35.6320   26.2540   45.0790 C.3    89  LEU89       0.0019
      7  CD1       36.3670   25.1880   44.2580 C.3    89  LEU89       0.0001
      8  CD2       34.2470   26.5100   44.4880 C.3    89  LEU89       0.0001
      9  N         38.9000   25.1470   46.2610 N.am   90  ASP90      -0.1960
     10  CA        39.8300   24.1870   45.6690 C.3    90  ASP90       0.1840
     11  C         40.6620   23.4170   46.6970 C.2    90  ASP90       0.2622
     12  O         40.5410   23.6420   47.9020 O.2    90  ASP90      -0.2715
     13  CB        40.7550   24.9060   44.6900 C.3    90  ASP90       0.1450
     14  CG        41.8160   25.7280   45.3850 C.2    90  ASP90       0.3671
     15  OD1       41.5180   26.3440   46.4250 O.co2  90  ASP90      -0.2456
     16  OD2       42.9550   25.7710   44.8860 O.co2  90  ASP90      -0.2456
     17  N         41.5010   22.4990   46.2180 N.am   91  ARG91      -0.1963
     18  CA        42.3540   21.7050   47.1070 C.3    91  ARG91       0.1729
     19  C         43.3040   22.5570   47.9590 C.2    91  ARG91       0.2616
     20  O         43.4150   22.3550   49.1780 O.2    91  ARG91      -0.2715
     21  CB        43.1660   20.6960   46.2990 C.3    91  ARG91       0.0348
     22  CG        42.3260   19.6010   45.6960 C.3    91  ARG91       0.0492
     23  CD        43.1610   18.6150   44.9190 C.3    91  ARG91       0.2205
     24  NE        42.3040   17.7080   44.1720 N.pl3  91  ARG91      -0.0865
     25  CZ        42.7400   16.8050   43.3000 C.cat  91  ARG91       0.5346
     26  NH1       44.0380   16.6810   43.0610 N.pl3  91  ARG91       0.1354
     27  NH2       41.8720   16.0420   42.6510 N.pl3  91  ARG91       0.1354
     28  N         43.9890   23.4960   47.3080 N.am   92  GLU92      -0.1977
     29  CA        44.9100   24.3840   47.9870 C.3    92  GLU92       0.1602
     30  C         44.1810   25.0290   49.1670 C.2    92  GLU92       0.2287
     31  O         44.7300   25.1360   50.2590 O.2    92  GLU92      -0.2864
     32  CB        45.4230   25.4690   47.0260 C.3    92  GLU92       0.0415
     33  CG        46.5560   26.3190   47.6190 C.3    92  GLU92       0.1163
     34  CD        47.0040   27.4680   46.7180 C.2    92  GLU92       0.3649
     35  OE1       46.1890   28.3950   46.4700 O.co2  92  GLU92      -0.2457
     36  OE2       48.1740   27.4470   46.2610 O.co2  92  GLU92      -0.2457
     37  N         41.3030   15.3920   50.4700 N.3   138  ARG138     -0.1245
     38  CA        41.6820   16.4820   49.5890 C.3   138  ARG138      0.1563
     39  C         42.9540   17.1510   50.1080 C.2   138  ARG138      0.2260
     40  O         43.8440   17.5070   49.3350 O.2   138  ARG138     -0.2867
     41  CB        40.5260   17.4800   49.4650 C.3   138  ARG138      0.0307
     42  CG        39.2480   16.8530   48.8850 C.3   138  ARG138      0.0489
     43  CD        38.2170   17.9140   48.5550 C.3   138  ARG138      0.2205
     44  NE        38.6580   18.7120   47.4240 N.pl3 138  ARG138     -0.0865
     45  CZ        38.3300   19.9800   47.2140 C.cat 138  ARG138      0.5346
     46  NH1       37.5410   20.6250   48.0670 N.pl3 138  ARG138      0.1354
     47  NH2       38.8100   20.6090   46.1460 N.pl3 138  ARG138      0.1354
     48  N         46.7450   17.4420   48.1230 N.3   142  GLN142     -0.1245
     49  CA        47.4830   18.6970   48.0130 C.3   142  GLN142      0.1566
     50  C         48.8830   18.5910   48.5900 C.2   142  GLN142      0.2260
     51  O         49.8290   19.0970   47.9940 O.2   142  GLN142     -0.2867
     52  CB        46.7460   19.8420   48.7100 C.3   142  GLN142      0.0367
     53  CG        47.5100   21.1740   48.7020 C.3   142  GLN142      0.0905
     54  CD        47.5960   21.8320   47.3110 C.2   142  GLN142      0.2608
     55  OE1       48.2660   22.8510   47.1370 O.2   142  GLN142     -0.2717
     56  NE2       46.9120   21.2560   46.3300 N.am  142  GLN142     -0.0878
     57  N         51.1890   16.5040   46.2390 N.3   145  ARG145     -0.1245
     58  CA        51.7000   17.3280   45.1500 C.3   145  ARG145      0.1563
     59  C         52.8530   18.2180   45.6160 C.2   145  ARG145      0.2260
     60  O         53.8910   18.3010   44.9580 O.2   145  ARG145     -0.2867
     61  CB        50.5890   18.2180   44.5840 C.3   145  ARG145      0.0307
     62  CG        51.0520   19.1310   43.4480 C.3   145  ARG145      0.0489
     63  CD        50.1030   20.3130   43.2340 C.3   145  ARG145      0.2205
     64  NE        48.7770   19.8960   42.7880 N.pl3 145  ARG145     -0.0865
     65  CZ        48.5170   19.3620   41.5950 C.cat 145  ARG145      0.5346
     66  NH1       49.4960   19.1800   40.7130 N.pl3 145  ARG145      0.1354
     67  NH2       47.2760   19.0070   41.2830 N.pl3 145  ARG145      0.1354
     68  N         38.7770   29.4360   39.0990 N.3   298  ARG298     -0.1231
     69  CA        39.5800   28.2250   38.8620 C.3   298  ARG298      0.1694
     70  C         38.5780   27.0980   38.6780 C.2   298  ARG298      0.2593
     71  O         38.0460   26.5630   39.6430 O.2   298  ARG298     -0.2718
     72  CB        40.4920   27.9080   40.0510 C.3   298  ARG298      0.0321
     73  CG        41.7240   28.7960   40.1540 C.3   298  ARG298      0.0489
     74  CD        42.5830   28.3990   41.3490 C.3   298  ARG298      0.2205
     75  NE        43.7500   29.2580   41.5290 N.pl3 298  ARG298     -0.0865
     76  CZ        44.5720   29.1830   42.5730 C.cat 298  ARG298      0.5346
     77  NH1       44.3560   28.2850   43.5290 N.pl3 298  ARG298      0.1354
     78  NH2       45.6040   30.0160   42.6700 N.pl3 298  ARG298      0.1354
     79  N         38.3040   26.7530   37.4310 N.am  299  THR299     -0.1939
     80  CA        37.3400   25.7150   37.1510 C.3   299  THR299      0.2028
     81  C         37.6720   25.1050   35.8090 C.2   299  THR299      0.2642
     82  O         38.5600   25.5760   35.1100 O.2   299  THR299     -0.2714
     83  CB        35.9060   26.3140   37.0990 C.3   299  THR299      0.1808
     84  OG1       34.9460   25.2910   36.8120 O.3   299  THR299     -0.2208
     85  CG2       35.8110   27.3780   36.0060 C.3   299  THR299      0.0379
     86  N         36.9490   24.0500   35.4600 N.am  300  ASP300     -0.1971
     87  CA        37.1230   23.3810   34.1840 C.3   300  ASP300      0.1709
     88  C         35.7890   22.7210   33.8550 C.2   300  ASP300      0.2293
     89  O         35.7380   21.6970   33.1870 O.2   300  ASP300     -0.2864
     90  CB        38.2450   22.3360   34.2600 C.3   300  ASP300      0.1436
     91  CG        37.8310   21.0760   34.9920 C.2   300  ASP300      0.3671
     92  OD1       37.4710   21.1390   36.1840 O.co2 300  ASP300     -0.2456
     93  OD2       37.8660   20.0050   34.3660 O.co2 300  ASP300     -0.2456
     94  N         30.7160   22.0630   40.0540 N.3   335  HIS335     -0.1241
     95  CA        31.3100   23.3790   39.8810 C.3   335  HIS335      0.1621
     96  C         30.5720   24.1080   38.7620 C.2   335  HIS335      0.2264
     97  O         29.8180   23.4960   37.9980 O.2   335  HIS335     -0.2867
     98  CB        32.7880   23.2630   39.4870 C.3   335  HIS335      0.0745
     99  CG        33.6390   22.5470   40.4870 C.ar  335  HIS335      0.0817
    100  ND1       33.8270   21.1810   40.4630 N.ar  335  HIS335     -0.2268
    101  CD2       34.3510   23.0060   41.5430 C.ar  335  HIS335      0.1154
    102  CE1       34.6200   20.8300   41.4620 C.ar  335  HIS335      0.1986
    103  NE2       34.9510   21.9190   42.1320 N.ar  335  HIS335     -0.2212
    104  N         46.4300   22.3090   34.9270 N.3   460  ARG460     -0.1231
    105  CA        45.4190   22.2400   35.9790 C.3   460  ARG460      0.1679
    106  C         45.0130   23.6760   36.2780 C.2   460  ARG460      0.2434
    107  O         45.8570   24.5320   36.5200 O.2   460  ARG460     -0.2733
    108  CB        45.9590   21.5720   37.2480 C.3   460  ARG460      0.0321
    109  CG        44.9630   20.5810   37.8690 C.3   460  ARG460      0.0489
    110  CD        44.7970   19.3470   36.9730 C.3   460  ARG460      0.2205
    111  NE        43.6460   18.5220   37.3360 N.pl3 460  ARG460     -0.0865
    112  CZ        43.4710   17.2550   36.9560 C.cat 460  ARG460      0.5346
    113  NH1       44.3760   16.6370   36.1970 N.pl3 460  ARG460      0.1354
    114  NH2       42.3760   16.6020   37.3280 N.pl3 460  ARG460      0.1354
    115  N         43.7050   23.9540   36.2640 N.am  461  PRO461     -0.2718
    116  CA        43.1610   25.2860   36.5200 C.3   461  PRO461      0.1535
    117  C         43.9610   26.1230   37.4910 C.2   461  PRO461      0.2599
    118  O         44.3070   27.2610   37.1960 O.2   461  PRO461     -0.2715
    119  CB        41.7620   24.9800   37.0250 C.3   461  PRO461      0.0310
    120  CG        41.3800   23.8290   36.1570 C.3   461  PRO461      0.0237
    121  CD        42.6210   22.9560   36.2200 C.3   461  PRO461      0.0939
    122  N         44.2810   25.5560   38.6460 N.am  462  SER462     -0.1936
    123  CA        45.0170   26.3150   39.6420 C.3   462  SER462      0.2055
    124  C         46.5300   26.3390   39.4700 C.2   462  SER462      0.2643
    125  O         47.2210   26.8890   40.3170 O.2   462  SER462     -0.2714
    126  CB        44.6880   25.7990   41.0340 C.3   462  SER462      0.2130
    127  OG        45.3390   24.5690   41.2540 O.3   462  SER462     -0.2179
    128  N         47.0550   25.7650   38.3890 N.am  463  THR463     -0.1950
    129  CA        48.5050   25.7640   38.1900 C.3   463  THR463      0.1897
    130  C         48.9940   26.3810   36.8860 C.2   463  THR463      0.2313
    131  O         50.1290   26.8480   36.8140 O.2   463  THR463     -0.2863
    132  CB        49.0990   24.3400   38.2670 C.3   463  THR463      0.1794
    133  OG1       48.6270   23.5630   37.1630 O.3   463  THR463     -0.2208
    134  CG2       48.7010   23.6590   39.5760 C.3   463  THR463      0.0378
    135  N         44.2440   12.8150   41.6290 N.3   518  ASP518     -0.1239
    136  CA        42.7890   12.8360   41.7210 C.3   518  ASP518      0.1674
    137  C         42.2940   11.6090   42.5120 C.2   518  ASP518      0.2266
    138  O         41.3560   11.7040   43.3070 O.2   518  ASP518     -0.2867
    139  CB        42.1650   12.8140   40.3250 C.3   518  ASP518      0.1410
    140  CG        42.3170   14.1360   39.5880 C.2   518  ASP518      0.3668
    141  OD1       42.7450   15.1400   40.2080 O.co2 518  ASP518     -0.2456
    142  OD2       41.9960   14.1680   38.3810 O.co2 518  ASP518     -0.2456
    143  N         42.4800   12.2020   46.1860 N.3   521  ALA521     -0.1231
    144  CA        41.4330   13.1390   46.5980 C.3   521  ALA521      0.1694
    145  C         40.0570   12.4710   46.7100 C.2   521  ALA521      0.2592
    146  O         39.2100   12.9130   47.4900 O.2   521  ALA521     -0.2718
    147  CB        41.3520   14.2980   45.6010 C.3   521  ALA521      0.0304
    148  N         39.8360   11.4180   45.9230 N.am  522  ASN522     -0.1974
    149  CA        38.5690   10.6900   45.9270 C.3   522  ASN522      0.1688
    150  C         38.6070    9.4080   46.7610 C.2   522  ASN522      0.2292
    151  O         37.7090    8.5660   46.6570 O.2   522  ASN522     -0.2864
    152  CB        38.1360   10.3520   44.4890 C.3   522  ASN522      0.1181
    153  CG        37.5770   11.5630   43.7420 C.2   522  ASN522      0.2629
    154  OD1       36.6180   12.1750   44.1860 O.2   522  ASN522     -0.2716
    155  ND2       38.1740   11.9000   42.5990 N.am  522  ASN522     -0.0877
@<TRIPOS>BOND
     1    89    88    2
     2    88    87    1
     3    87    90    1
     4    87    86    1
     5    90    91    1
     6    93    91   ar
     7   104   105    1
     8    91    92   ar
     9    82    81    2
    10    86    81   am
    11    81    80    1
    12   105   106    1
    13   105   108    1
    14    85    83    1
    15   120   121    1
    16   120   119    1
    17   113   112    1
    18   121   115    1
    19   115   106   am
    20   115   116    1
    21   106   107    2
    22   116   119    1
    23   116   117    1
    24    84    83    1
    25   131   130    2
    26   130   129    1
    27   112   114    1
    28   112   111    2
    29   110   111    1
    30   110   109    1
    31    83    80    1
    32    80    79    1
    33   133   132    1
    34   118   117    2
    35   108   109    1
    36    79    70   am
    37   117   122   am
    38    97    96    2
    39   129   132    1
    40   129   128    1
    41   132   134    1
    42   142   140   ar
    43   128   124   am
    44   122   123    1
    45    70    69    1
    46    70    71    2
    47    96    95    1
    48    69    68    1
    49    69    72    1
    50   124   123    1
    51   124   125    2
    52    98    95    1
    53    98    99    1
    54   140   141   ar
    55   140   139    1
    56   123   126    1
    57    95    94    1
    58    72    73    1
    59    73    74    1
    60   139   136    1
    61   100    99   ar
    62   100   102   ar
    63    99   101   ar
    64    66    65    1
    65   126   127    1
    66    67    65    1
    67    74    75    1
    68   102   103   ar
    69    75    76    2
    70   101   103   ar
    71    65    64    2
    72   135   136    1
    73   136   137    1
    74   137   138    2
    75    76    78    1
    76    76    77    1
    77   155   153   am
    78    27    25    1
    79    64    63    1
    80    26    25    1
    81    63    62    1
    82    25    24    2
    83    62    61    1
    84   153   154    2
    85   153   152    1
    86    24    23    1
    87     7     6    1
    88     8     6    1
    89   152   149    1
    90    61    58    1
    91    13    14    1
    92    13    10    1
    93    16    14   ar
    94    23    22    1
    95    60    59    2
    96     6     5    1
    97    58    59    1
    98    58    57    1
    99    14    15   ar
   100   147   144    1
   101    10     9    1
   102    10    11    1
   103    22    21    1
   104   148   149    1
   105   148   145   am
   106   149   150    1
   107    47    45    1
   108   143   144    1
   109    17    11   am
   110    17    18    1
   111    36    34   ar
   112     9     3   am
   113    21    18    1
   114    56    54   am
   115    35    34   ar
   116     5     2    1
   117   144   145    1
   118   151   150    2
   119    11    12    2
   120   145   146    2
   121    34    33    1
   122     3     4    2
   123     3     2    1
   124    32    33    1
   125    32    29    1
   126    18    19    1
   127    55    54    2
   128    45    44    2
   129    45    46    1
   130    28    19   am
   131    28    29    1
   132    54    53    1
   133     2     1    1
   134    44    43    1
   135    19    20    2
   136    29    30    1
   137    51    50    2
   138    49    48    1
   139    49    50    1
   140    49    52    1
   141    43    42    1
   142    53    52    1
   143    42    41    1
   144    30    31    2
   145    40    39    2
   146    41    38    1
   147    38    39    1
   148    38    37    1
