@<TRIPOS>MOLECULE
tmp/1cy7A02.pdb
 84 77 0 0 0
SMALL
GASTEIGER

@<TRIPOS>ATOM
      1  N         42.4300   31.9860   26.7240 N.3   268  GLN268     -0.1245
      2  CA        42.6650   32.1160   25.2890 C.3   268  GLN268      0.1566
      3  C         41.8660   33.2550   24.6520 C.2   268  GLN268      0.2260
      4  O         42.3980   33.9950   23.8310 O.2   268  GLN268     -0.2867
      5  CB        42.3240   30.8190   24.5560 C.3   268  GLN268      0.0367
      6  CG        42.3560   30.9690   23.0240 C.3   268  GLN268      0.0905
      7  CD        43.7520   30.8280   22.4070 C.2   268  GLN268      0.2608
      8  OE1       44.7290   31.4380   22.8620 O.2   268  GLN268     -0.2717
      9  NE2       43.8410   30.0240   21.3500 N.am  268  GLN268     -0.0878
     10  N         43.2430   36.5770   25.7790 N.3   271  SER271     -0.1202
     11  CA        44.5170   36.8000   25.1060 C.3   271  SER271      0.2020
     12  C         44.3430   37.1730   23.6410 C.2   271  SER271      0.2619
     13  O         44.9440   38.1280   23.1700 O.2   271  SER271     -0.2717
     14  CB        45.3940   35.5470   25.1940 C.3   271  SER271      0.2103
     15  OG        46.5980   35.7250   24.4700 O.3   271  SER271     -0.2182
     16  N         43.5270   36.4170   22.9190 N.am  272  THR272     -0.1952
     17  CA        43.3100   36.6880   21.5040 C.3   272  THR272      0.1897
     18  C         42.4770   37.9370   21.2290 C.2   272  THR272      0.2313
     19  O         42.7560   38.6910   20.2900 O.2   272  THR272     -0.2863
     20  CB        42.6050   35.5130   20.8120 C.3   272  THR272      0.1794
     21  OG1       43.4050   34.3300   20.9330 O.3   272  THR272     -0.2208
     22  CG2       42.3930   35.8240   19.3420 C.3   272  THR272      0.0378
     23  N         44.0640   40.8640   24.2110 N.3   275  GLY275     -0.1225
     24  CA        45.5060   40.9640   24.3270 C.3   275  GLY275      0.1811
     25  C         46.0000   40.8220   25.7580 C.2   275  GLY275      0.2280
     26  O         47.0730   41.3080   26.0850 O.2   275  GLY275     -0.2866
     27  N         52.7180   27.5760   14.0800 N.3   442  ALA442     -0.1231
     28  CA        52.6060   28.7890   14.8710 C.3   442  ALA442      0.1694
     29  C         53.2990   28.6370   16.2240 C.2   442  ALA442      0.2591
     30  O         53.3260   27.5490   16.7990 O.2   442  ALA442     -0.2718
     31  CB        51.1330   29.1410   15.0790 C.3   442  ALA442      0.0304
     32  N         53.8630   29.7330   16.7190 N.am  443  ARG443     -0.1980
     33  CA        54.5280   29.7360   18.0140 C.3   443  ARG443      0.1597
     34  C         53.4690   29.7640   19.1110 C.2   443  ARG443      0.2287
     35  O         52.4420   30.4290   18.9810 O.2   443  ARG443     -0.2864
     36  CB        55.4330   30.9660   18.1520 C.3   443  ARG443      0.0334
     37  CG        56.7190   30.8930   17.3420 C.3   443  ARG443      0.0492
     38  CD        57.6040   32.1330   17.5660 C.3   443  ARG443      0.2205
     39  NE        58.9200   32.0040   16.9350 N.pl3 443  ARG443     -0.0865
     40  CZ        59.8710   31.1680   17.3460 C.cat 443  ARG443      0.5346
     41  NH1       59.6620   30.3840   18.3930 N.pl3 443  ARG443      0.1354
     42  NH2       61.0310   31.1090   16.7080 N.pl3 443  ARG443      0.1354
     43  N         51.4220   30.7080   22.4110 N.3   445  SER445     -0.1217
     44  CA        51.1640   31.9830   23.0610 C.3   445  SER445      0.1889
     45  C         51.0370   31.5000   24.4920 C.2   445  SER445      0.2288
     46  O         50.9210   30.2870   24.7180 O.2   445  SER445     -0.2866
     47  CB        49.8300   32.5890   22.6220 C.3   445  SER445      0.2089
     48  OG        48.7620   32.1780   23.4680 O.3   445  SER445     -0.2183
     49  N         47.6460   29.7540   24.4190 N.3   448  SER448     -0.1217
     50  CA        47.5380   28.6090   23.5200 C.3   448  SER448      0.1889
     51  C         48.4480   27.4480   23.9380 C.2   448  SER448      0.2288
     52  O         48.3370   26.3410   23.4120 O.2   448  SER448     -0.2866
     53  CB        47.8150   29.0210   22.0710 C.3   448  SER448      0.2089
     54  OG        49.1970   29.1440   21.8150 O.3   448  SER448     -0.2183
     55  N         56.9660   39.5250   21.9640 N.3   481  ASN481     -0.1225
     56  CA        55.8260   39.9340   21.1500 C.3   481  ASN481      0.1785
     57  C         54.6770   38.9750   21.4650 C.2   481  ASN481      0.2597
     58  O         53.9680   38.5150   20.5710 O.2   481  ASN481     -0.2718
     59  CB        56.1740   39.8650   19.6590 C.3   481  ASN481      0.1169
     60  CG        55.4330   40.9100   18.8310 C.2   481  ASN481      0.2627
     61  OD1       55.4910   40.8890   17.5960 O.2   481  ASN481     -0.2716
     62  ND2       54.7420   41.8380   19.5060 N.am  481  ASN481     -0.0877
     63  N         54.5330   38.6690   22.7520 N.am  482  ARG482     -0.1966
     64  CA        53.4930   37.7760   23.2620 C.3   482  ARG482      0.1729
     65  C         53.5570   36.3240   22.7490 C.2   482  ARG482      0.2616
     66  O         52.5770   35.5750   22.8330 O.2   482  ARG482     -0.2715
     67  CB        52.1120   38.3830   22.9820 C.3   482  ARG482      0.0348
     68  CG        51.9120   39.7620   23.6090 C.3   482  ARG482      0.0492
     69  CD        50.5230   40.3140   23.3190 C.3   482  ARG482      0.2205
     70  NE        49.4710   39.4050   23.7800 N.pl3 482  ARG482     -0.0865
     71  CZ        49.2500   39.0780   25.0540 C.cat 482  ARG482      0.5346
     72  NH1       50.0070   39.5850   26.0300 N.pl3 482  ARG482      0.1354
     73  NH2       48.2660   38.2330   25.3520 N.pl3 482  ARG482      0.1354
     74  N         54.7160   35.9240   22.2330 N.am  483  ARG483     -0.1977
     75  CA        54.9010   34.5650   21.7320 C.3   483  ARG483      0.1597
     76  C         56.1080   33.9080   22.4010 C.2   483  ARG483      0.2287
     77  O         57.0720   34.5900   22.7720 O.2   483  ARG483     -0.2864
     78  CB        55.0890   34.5680   20.2100 C.3   483  ARG483      0.0334
     79  CG        53.8690   35.0430   19.4230 C.3   483  ARG483      0.0492
     80  CD        52.6530   34.1820   19.7210 C.3   483  ARG483      0.2205
     81  NE        51.4840   34.5730   18.9410 N.pl3 483  ARG483     -0.0865
     82  CZ        50.3410   33.8910   18.9220 C.cat 483  ARG483      0.5346
     83  NH1       50.2110   32.7830   19.6420 N.pl3 483  ARG483      0.1354
     84  NH2       49.3270   34.3060   18.1770 N.pl3 483  ARG483      0.1354
@<TRIPOS>BOND
     1    27    28    1
     2    28    31    1
     3    28    29    1
     4    29    32   am
     5    29    30    2
     6    42    40    1
     7    32    33    1
     8    39    40    2
     9    39    38    1
    10    37    38    1
    11    37    36    1
    12    40    41    1
    13    61    60    2
    14    33    36    1
    15    33    34    1
    16    84    82    1
    17    60    62   am
    18    60    59    1
    19    82    81    2
    20    82    83    1
    21    81    80    1
    22    35    34    2
    23    22    20    1
    24    79    80    1
    25    79    78    1
    26    59    56    1
    27    78    75    1
    28    19    18    2
    29    58    57    2
    30    20    21    1
    31    20    17    1
    32    56    57    1
    33    56    55    1
    34    18    17    1
    35     9     7   am
    36    57    63   am
    37    17    16    1
    38    75    74    1
    39    75    76    1
    40    54    53    1
    41    53    50    1
    42    74    65   am
    43    76    77    2
    44     7     8    2
    45     7     6    1
    46    43    44    1
    47    47    44    1
    48    47    48    1
    49    65    66    2
    50    65    64    1
    51    63    64    1
    52    16    12   am
    53    67    64    1
    54    67    68    1
    55     6     5    1
    56    44    45    1
    57    13    12    2
    58    69    68    1
    59    69    70    1
    60    52    51    2
    61    50    51    1
    62    50    49    1
    63    12    11    1
    64    70    71    2
    65     4     3    2
    66    23    24    1
    67    24    25    1
    68    15    14    1
    69    45    46    2
    70     5     2    1
    71     3     2    1
    72    71    73    1
    73    71    72    1
    74    11    14    1
    75    11    10    1
    76     2     1    1
    77    25    26    2
