@<TRIPOS>MOLECULE
tmp/1cy7A01.pdb
 105 102 0 0 0
SMALL
GASTEIGER

@<TRIPOS>ATOM
      1  N         32.5850   30.0780   29.2260 N.3   261  PHE261     -0.1241
      2  CA        33.9970   29.8700   29.5280 C.3   261  PHE261      0.1605
      3  C         34.3130   28.9630   30.7050 C.2   261  PHE261      0.2264
      4  O         33.5310   28.8190   31.6430 O.2   261  PHE261     -0.2867
      5  CB        34.7040   31.2020   29.8480 C.3   261  PHE261      0.0534
      6  CG        34.7710   32.1640   28.7070 C.ar  261  PHE261     -0.0203
      7  CD1       35.2910   31.7800   27.4810 C.ar  261  PHE261     -0.0042
      8  CD2       34.3170   33.4690   28.8640 C.ar  261  PHE261     -0.0042
      9  CE1       35.3530   32.6800   26.4230 C.ar  261  PHE261     -0.0003
     10  CE2       34.3750   34.3700   27.8160 C.ar  261  PHE261     -0.0003
     11  CZ        34.8930   33.9740   26.5920 C.ar  261  PHE261     -0.0000
     12  N         41.4540   38.1600   22.0420 N.3   273  ARG273     -0.1231
     13  CA        40.5850   39.3010   21.8220 C.3   273  ARG273      0.1694
     14  C         40.9810   40.5610   22.5700 C.2   273  ARG273      0.2591
     15  O         40.9000   41.6460   22.0190 O.2   273  ARG273     -0.2718
     16  CB        39.1410   38.9260   22.1610 C.3   273  ARG273      0.0321
     17  CG        38.5910   37.7790   21.3200 C.3   273  ARG273      0.0489
     18  CD        37.1860   37.3930   21.7690 C.3   273  ARG273      0.2205
     19  NE        36.6150   36.2990   20.9840 N.pl3 273  ARG273     -0.0865
     20  CZ        36.3900   36.3530   19.6740 C.cat 273  ARG273      0.5346
     21  NH1       36.6870   37.4510   18.9880 N.pl3 273  ARG273      0.1354
     22  NH2       35.8610   35.3080   19.0500 N.pl3 273  ARG273      0.1354
     23  N         41.4200   40.4310   23.8160 N.am  274  LEU274     -0.1980
     24  CA        41.7870   41.6220   24.5760 C.3   274  LEU274      0.1596
     25  C         43.2890   41.8090   24.7270 C.2   274  LEU274      0.2287
     26  O         43.7380   42.7930   25.3050 O.2   274  LEU274     -0.2864
     27  CB        41.1330   41.5750   25.9580 C.3   274  LEU274      0.0297
     28  CG        39.6350   41.2920   25.9060 C.3   274  LEU274      0.0022
     29  CD1       39.0720   41.2020   27.3180 C.3   274  LEU274      0.0001
     30  CD2       38.9460   42.3910   25.1050 C.3   274  LEU274      0.0001
     31  N         36.4690   45.1320   31.1900 N.3   363  LYS363     -0.1245
     32  CA        36.5300   44.5490   29.8580 C.3   363  LYS363      0.1561
     33  C         36.5100   43.0130   29.9050 C.2   363  LYS363      0.2260
     34  O         35.9560   42.3570   29.0140 O.2   363  LYS363     -0.2867
     35  CB        37.8000   45.0230   29.1610 C.3   363  LYS363      0.0271
     36  CG        37.7330   44.9460   27.6550 C.3   363  LYS363      0.0035
     37  CD        37.8360   46.3270   27.0560 C.3   363  LYS363      0.0206
     38  CE        39.1830   46.9800   27.3950 C.3   363  LYS363      0.1093
     39  NZ        39.2020   48.4300   27.0000 N.3   363  LYS363     -0.1314
     40  N         32.9920   42.0420   30.7070 N.3   366  GLN366     -0.1231
     41  CA        32.1980   42.1690   29.4880 C.3   366  GLN366      0.1698
     42  C         32.3250   40.9320   28.6210 C.2   366  GLN366      0.2592
     43  O         31.3190   40.3700   28.1760 O.2   366  GLN366     -0.2718
     44  CB        32.6270   43.4020   28.6950 C.3   366  GLN366      0.0381
     45  CG        31.8070   43.6620   27.4360 C.3   366  GLN366      0.0905
     46  CD        32.2160   44.9570   26.7470 C.2   366  GLN366      0.2608
     47  OE1       33.3910   45.1570   26.4230 O.2   366  GLN366     -0.2717
     48  NE2       31.2510   45.8460   26.5230 N.am  366  GLN366     -0.0878
     49  N         33.5630   40.5100   28.3790 N.am  367  LEU367     -0.1980
     50  CA        33.8250   39.3120   27.5800 C.3   367  LEU367      0.1596
     51  C         33.1080   38.1060   28.2060 C.2   367  LEU367      0.2287
     52  O         32.4900   37.3260   27.5090 O.2   367  LEU367     -0.2864
     53  CB        35.3340   39.0410   27.5020 C.3   367  LEU367      0.0297
     54  CG        35.7910   37.8250   26.6840 C.3   367  LEU367      0.0022
     55  CD1       35.6630   38.1280   25.2150 C.3   367  LEU367      0.0001
     56  CD2       37.2370   37.4800   27.0130 C.3   367  LEU367      0.0001
     57  N         29.1620   38.6000   27.8870 N.3   370  ARG370     -0.1231
     58  CA        28.7570   38.3540   26.5000 C.3   370  ARG370      0.1694
     59  C         28.7490   36.8690   26.1450 C.2   370  ARG370      0.2591
     60  O         27.8230   36.3810   25.4950 O.2   370  ARG370     -0.2718
     61  CB        29.7040   39.0610   25.5200 C.3   370  ARG370      0.0321
     62  CG        29.6320   40.5690   25.5030 C.3   370  ARG370      0.0489
     63  CD        30.6130   41.1330   24.4680 C.3   370  ARG370      0.2205
     64  NE        30.6250   42.5940   24.4470 N.pl3 370  ARG370     -0.0865
     65  CZ        31.5100   43.3270   23.7760 C.cat 370  ARG370      0.5346
     66  NH1       31.4440   44.6500   23.8100 N.pl3 370  ARG370      0.1354
     67  NH2       32.4700   42.7370   23.0750 N.pl3 370  ARG370      0.1354
     68  N         29.7920   36.1540   26.5540 N.am  371  GLN371     -0.1979
     69  CA        29.8750   34.7420   26.2330 C.3   371  GLN371      0.1601
     70  C         28.7030   34.0400   26.9100 C.2   371  GLN371      0.2287
     71  O         28.0390   33.1880   26.3100 O.2   371  GLN371     -0.2864
     72  CB        31.2070   34.1580   26.7260 C.3   371  GLN371      0.0394
     73  CG        31.5110   32.7340   26.2440 C.3   371  GLN371      0.0908
     74  CD        31.9580   32.6930   24.7850 C.2   371  GLN371      0.2608
     75  OE1       32.0310   33.7230   24.1300 O.2   371  GLN371     -0.2717
     76  NE2       32.2570   31.4980   24.2760 N.am  371  GLN371     -0.0878
     77  N         22.4790   34.7050   18.2310 N.3   408  TRP408     -0.1241
     78  CA        23.4270   34.9990   19.2930 C.3   408  TRP408      0.1605
     79  C         24.4340   36.1330   19.0070 C.2   408  TRP408      0.2264
     80  O         24.9270   36.7720   19.9370 O.2   408  TRP408     -0.2867
     81  CB        24.1940   33.7250   19.6730 C.3   408  TRP408      0.0550
     82  CG        25.1710   33.2680   18.6050 C.ar  408  TRP408      0.0003
     83  CD1       24.8920   32.5150   17.4870 C.ar  408  TRP408      0.0946
     84  CD2       26.5680   33.5940   18.5280 C.ar  408  TRP408      0.0152
     85  NE1       26.0330   32.3610   16.7220 N.ar  408  TRP408     -0.2442
     86  CE2       27.0730   33.0120   17.3370 C.ar  408  TRP408      0.0810
     87  CE3       27.4440   34.3250   19.3510 C.ar  408  TRP408      0.0012
     88  CZ2       28.4160   33.1410   16.9500 C.ar  408  TRP408      0.0191
     89  CZ3       28.7740   34.4520   18.9700 C.ar  408  TRP408      0.0001
     90  CH2       29.2490   33.8640   17.7750 C.ar  408  TRP408      0.0015
     91  N         27.0240   40.7300   20.4040 N.3   412  MET412     -0.1231
     92  CA        28.4210   41.0240   20.0870 C.3   412  MET412      0.1687
     93  C         28.4340   42.3340   19.3010 C.2   412  MET412      0.2434
     94  O         27.4420   42.7000   18.6760 O.2   412  MET412     -0.2733
     95  CB        29.0350   39.8920   19.2500 C.3   412  MET412      0.0400
     96  CG        29.0640   38.5360   19.9610 C.3   412  MET412      0.0596
     97  SD        30.0800   38.5330   21.4670 S.3   412  MET412     -0.1393
     98  CE        29.6720   36.9130   22.1410 C.3   412  MET412      0.0692
     99  N         29.5570   43.0570   19.3160 N.am  413  PRO413     -0.2729
    100  CA        29.6020   44.3220   18.5810 C.3   413  PRO413      0.1401
    101  C         29.1500   44.2120   17.1310 C.2   413  PRO413      0.2269
    102  O         29.2320   43.1490   16.5200 O.2   413  PRO413     -0.2865
    103  CB        31.0630   44.7460   18.7220 C.3   413  PRO413      0.0296
    104  CG        31.4240   44.1800   20.0710 C.3   413  PRO413      0.0237
    105  CD        30.8400   42.7960   19.9860 C.3   413  PRO413      0.0939
@<TRIPOS>BOND
     1   102   101    2
     2    85    86   ar
     3    85    83   ar
     4    88    86   ar
     5    88    90   ar
     6   101   100    1
     7    86    84   ar
     8    83    82   ar
     9    90    89   ar
    10    77    78    1
    11    84    82   ar
    12    84    87   ar
    13   100   103    1
    14   100    99    1
    15    82    81    1
    16    94    93    2
    17   103   104    1
    18    89    87   ar
    19    21    20    1
    20    79    78    1
    21    79    80    2
    22    22    20    1
    23    95    96    1
    24    95    92    1
    25    78    81    1
    26    93    99   am
    27    93    92    1
    28    99   105    1
    29    20    19    2
    30    96    97    1
    31   105   104    1
    32    92    91    1
    33    19    18    1
    34    17    18    1
    35    17    16    1
    36    97    98    1
    37    13    12    1
    38    13    16    1
    39    13    14    1
    40    15    14    2
    41    14    23   am
    42    67    65    1
    43    65    66    1
    44    65    64    2
    45    23    24    1
    46    75    74    2
    47    76    74   am
    48    64    63    1
    49    63    62    1
    50    24    25    1
    51    24    27    1
    52    25    26    2
    53    74    73    1
    54    30    28    1
    55    55    54    1
    56    60    59    2
    57    62    61    1
    58    61    58    1
    59    28    27    1
    60    28    29    1
    61    59    58    1
    62    59    68   am
    63    69    68    1
    64    69    72    1
    65    69    70    1
    66    73    72    1
    67    71    70    2
    68    47    46    2
    69     9    11   ar
    70     9     7   ar
    71    58    57    1
    72    48    46   am
    73    11    10   ar
    74    54    56    1
    75    54    53    1
    76    46    45    1
    77    39    38    1
    78    37    38    1
    79    37    36    1
    80    45    44    1
    81     7     6   ar
    82    53    50    1
    83    52    51    2
    84    50    51    1
    85    50    49    1
    86    36    35    1
    87    10     8   ar
    88    43    42    2
    89    49    42   am
    90    42    41    1
    91    44    41    1
    92     6     8   ar
    93     6     5    1
    94    34    33    2
    95    35    32    1
    96     1     2    1
    97    41    40    1
    98     2     5    1
    99     2     3    1
   100    32    33    1
   101    32    31    1
   102     3     4    2
