@<TRIPOS>MOLECULE
tmp/1cy7A00.pdb
 164 156 0 0 0
SMALL
GASTEIGER

@<TRIPOS>ATOM
      1  N         36.7320   26.8290   47.0660 N.3    89  LEU89      -0.1231
      2  CA        36.3630   25.4330   46.8590 C.3    89  LEU89       0.1693
      3  C         37.3780   24.4430   46.2770 C.2    89  LEU89       0.2592
      4  O         37.1190   23.2370   46.2600 O.2    89  LEU89      -0.2718
      5  CB        35.0890   25.3970   46.0150 C.3    89  LEU89       0.0284
      6  CG        35.2320   25.9700   44.6020 C.3    89  LEU89       0.0019
      7  CD1       35.9950   24.9810   43.7350 C.3    89  LEU89       0.0001
      8  CD2       33.8590   26.2250   43.9900 C.3    89  LEU89       0.0001
      9  N         38.5210   24.9120   45.8010 N.am   90  ASP90      -0.1960
     10  CA        39.4900   23.9880   45.2090 C.3    90  ASP90       0.1840
     11  C         40.3690   23.2580   46.2300 C.2    90  ASP90       0.2622
     12  O         40.4010   23.6160   47.4070 O.2    90  ASP90      -0.2715
     13  CB        40.3550   24.7390   44.1970 C.3    90  ASP90       0.1450
     14  CG        41.4140   25.5950   44.8480 C.2    90  ASP90       0.3671
     15  OD1       41.2390   26.0070   46.0150 O.co2  90  ASP90      -0.2456
     16  OD2       42.4250   25.8660   44.1720 O.co2  90  ASP90      -0.2456
     17  N         41.0800   22.2290   45.7780 N.am   91  ARG91      -0.1963
     18  CA        41.9490   21.4530   46.6640 C.3    91  ARG91       0.1729
     19  C         42.8560   22.3450   47.4780 C.2    91  ARG91       0.2616
     20  O         42.9870   22.1570   48.6850 O.2    91  ARG91      -0.2715
     21  CB        42.7790   20.4450   45.8650 C.3    91  ARG91       0.0348
     22  CG        41.9230   19.3470   45.2860 C.3    91  ARG91       0.0492
     23  CD        42.7210   18.3710   44.4500 C.3    91  ARG91       0.2205
     24  NE        41.8300   17.6040   43.5840 N.pl3  91  ARG91      -0.0865
     25  CZ        42.2350   16.8040   42.6080 C.cat  91  ARG91       0.5346
     26  NH1       43.5310   16.6510   42.3670 N.pl3  91  ARG91       0.1354
     27  NH2       41.3420   16.1810   41.8550 N.pl3  91  ARG91       0.1354
     28  N         43.4920   23.3050   46.8150 N.am   92  GLU92      -0.1977
     29  CA        44.3560   24.2420   47.5010 C.3    92  GLU92       0.1602
     30  C         43.5170   24.8710   48.6040 C.2    92  GLU92       0.2287
     31  O         43.9650   25.0080   49.7330 O.2    92  GLU92      -0.2864
     32  CB        44.8740   25.3110   46.5260 C.3    92  GLU92       0.0415
     33  CG        45.3170   26.6190   47.1940 C.3    92  GLU92       0.1163
     34  CD        45.9870   27.5950   46.2290 C.2    92  GLU92       0.3649
     35  OE1       47.1760   27.3940   45.9050 O.co2  92  GLU92      -0.2457
     36  OE2       45.3260   28.5610   45.7900 O.co2  92  GLU92      -0.2457
     37  N         40.7440   15.3030   49.6710 N.3   138  ARG138     -0.1245
     38  CA        41.1260   16.4200   48.8100 C.3   138  ARG138      0.1563
     39  C         42.3810   17.0920   49.3880 C.2   138  ARG138      0.2260
     40  O         43.2610   17.5350   48.6470 O.2   138  ARG138     -0.2867
     41  CB        39.9780   17.4410   48.6910 C.3   138  ARG138      0.0307
     42  CG        38.7140   16.8940   48.0390 C.3   138  ARG138      0.0489
     43  CD        37.6830   17.9880   47.8140 C.3   138  ARG138      0.2205
     44  NE        37.9730   18.7520   46.6070 N.pl3 138  ARG138     -0.0865
     45  CZ        37.9290   20.0740   46.5300 C.cat 138  ARG138      0.5346
     46  NH1       37.5990   20.7920   47.5990 N.pl3 138  ARG138      0.1354
     47  NH2       38.2390   20.6800   45.3890 N.pl3 138  ARG138      0.1354
     48  N         46.0320   17.4400   47.5620 N.3   142  GLN142     -0.1245
     49  CA        46.7670   18.6980   47.4870 C.3   142  GLN142      0.1566
     50  C         48.1900   18.5870   48.0160 C.2   142  GLN142      0.2260
     51  O         49.1160   19.1400   47.4330 O.2   142  GLN142     -0.2867
     52  CB        46.0480   19.8050   48.2670 C.3   142  GLN142      0.0367
     53  CG        46.7800   21.1380   48.2050 C.3   142  GLN142      0.0905
     54  CD        46.8380   21.6830   46.7820 C.2   142  GLN142      0.2608
     55  OE1       47.7510   22.4190   46.4210 O.2   142  GLN142     -0.2717
     56  NE2       45.8490   21.3230   45.9700 N.am  142  GLN142     -0.0878
     57  N         50.5160   16.5110   45.6770 N.3   145  ARG145     -0.1245
     58  CA        51.0470   17.3350   44.6050 C.3   145  ARG145      0.1563
     59  C         52.2130   18.1920   45.1010 C.2   145  ARG145      0.2260
     60  O         53.2660   18.2680   44.4700 O.2   145  ARG145     -0.2867
     61  CB        49.9360   18.2290   44.0350 C.3   145  ARG145      0.0307
     62  CG        50.4070   19.1980   42.9500 C.3   145  ARG145      0.0489
     63  CD        49.2770   19.6370   42.0240 C.3   145  ARG145      0.2205
     64  NE        48.3950   20.6420   42.6050 N.pl3 145  ARG145     -0.0865
     65  CZ        48.7830   21.8610   42.9740 C.cat 145  ARG145      0.5346
     66  NH1       50.0480   22.2390   42.8320 N.pl3 145  ARG145      0.1354
     67  NH2       47.8960   22.7140   43.4730 N.pl3 145  ARG145      0.1354
     68  N         38.4820   29.2300   38.6040 N.3   298  ARG298     -0.1231
     69  CA        39.2670   28.0210   38.3800 C.3   298  ARG298      0.1694
     70  C         38.2910   26.8640   38.2050 C.2   298  ARG298      0.2593
     71  O         37.8190   26.2910   39.1770 O.2   298  ARG298     -0.2718
     72  CB        40.1820   27.7590   39.5720 C.3   298  ARG298      0.0321
     73  CG        41.3880   28.6960   39.6740 C.3   298  ARG298      0.0489
     74  CD        42.1220   28.3940   40.9500 C.3   298  ARG298      0.2205
     75  NE        43.3760   29.1090   41.0940 N.pl3 298  ARG298     -0.0865
     76  CZ        44.2320   28.8980   42.0920 C.cat 298  ARG298      0.5346
     77  NH1       43.9520   27.9950   43.0220 N.pl3 298  ARG298      0.1354
     78  NH2       45.3680   29.5810   42.1610 N.pl3 298  ARG298      0.1354
     79  N         37.9990   26.5180   36.9590 N.am  299  THR299     -0.1939
     80  CA        37.0500   25.4590   36.6800 C.3   299  THR299      0.2028
     81  C         37.2990   24.8570   35.3000 C.2   299  THR299      0.2642
     82  O         37.9000   25.4980   34.4300 O.2   299  THR299     -0.2714
     83  CB        35.6220   26.0450   36.7230 C.3   299  THR299      0.1808
     84  OG1       34.6510   25.0340   36.4220 O.3   299  THR299     -0.2208
     85  CG2       35.5010   27.1870   35.6970 C.3   299  THR299      0.0379
     86  N         36.8530   23.6200   35.1060 N.am  300  ASP300     -0.1971
     87  CA        36.9700   22.9610   33.8080 C.3   300  ASP300      0.1709
     88  C         35.5880   22.4320   33.4530 C.2   300  ASP300      0.2293
     89  O         35.4500   21.5430   32.6160 O.2   300  ASP300     -0.2864
     90  CB        37.9720   21.7970   33.8300 C.3   300  ASP300      0.1436
     91  CG        37.6780   20.7890   34.9200 C.2   300  ASP300      0.3671
     92  OD1       36.4910   20.5700   35.2360 O.co2 300  ASP300     -0.2456
     93  OD2       38.6420   20.2040   35.4640 O.co2 300  ASP300     -0.2456
     94  N         29.6560   13.9560   40.5570 N.3   336  GLN336     -0.1245
     95  CA        30.8330   14.4260   39.8380 C.3   336  GLN336      0.1566
     96  C         30.4090   15.4430   38.7920 C.2   336  GLN336      0.2260
     97  O         29.2750   15.4170   38.3200 O.2   336  GLN336     -0.2867
     98  CB        31.5520   13.2600   39.1550 C.3   336  GLN336      0.0367
     99  CG        32.7880   13.6770   38.3740 C.3   336  GLN336      0.0905
    100  CD        33.7770   14.4550   39.2240 C.2   336  GLN336      0.2608
    101  OE1       33.4680   15.5380   39.7190 O.2   336  GLN336     -0.2717
    102  NE2       34.9730   13.9030   39.3990 N.am  336  GLN336     -0.0878
    103  N         30.2790   21.3690   39.2110 N.3   339  HIS339     -0.1241
    104  CA        30.7740   22.7350   39.3210 C.3   339  HIS339      0.1621
    105  C         30.0770   23.6120   38.3000 C.2   339  HIS339      0.2264
    106  O         29.0550   23.2270   37.7420 O.2   339  HIS339     -0.2867
    107  CB        32.2840   22.7680   39.0980 C.3   339  HIS339      0.0745
    108  CG        33.0680   22.2240   40.2470 C.ar  339  HIS339      0.0817
    109  ND1       34.0710   21.2920   40.0910 N.ar  339  HIS339     -0.2268
    110  CD2       32.9800   22.4650   41.5760 C.ar  339  HIS339      0.1154
    111  CE1       34.5640   20.9790   41.2750 C.ar  339  HIS339      0.1986
    112  NE2       33.9200   21.6760   42.1930 N.ar  339  HIS339     -0.2212
    113  N         45.9610   21.8660   34.9510 N.3   460  ARG460     -0.1231
    114  CA        44.8090   21.8140   35.8310 C.3   460  ARG460      0.1679
    115  C         44.3900   23.2620   36.0050 C.2   460  ARG460      0.2434
    116  O         45.2210   24.1270   36.2200 O.2   460  ARG460     -0.2733
    117  CB        45.1710   21.1930   37.1790 C.3   460  ARG460      0.0321
    118  CG        44.2610   20.0280   37.5600 C.3   460  ARG460      0.0489
    119  CD        44.2820   18.9490   36.4720 C.3   460  ARG460      0.2205
    120  NE        43.3760   17.8350   36.7410 N.pl3 460  ARG460     -0.0865
    121  CZ        43.2130   16.7880   35.9350 C.cat 460  ARG460      0.5346
    122  NH1       43.8930   16.6960   34.7960 N.pl3 460  ARG460      0.1354
    123  NH2       42.3630   15.8290   36.2680 N.pl3 460  ARG460      0.1354
    124  N         43.0880   23.5380   35.9080 N.am  461  PRO461     -0.2718
    125  CA        42.5420   24.8910   36.0450 C.3   461  PRO461      0.1535
    126  C         43.2550   25.7420   37.0830 C.2   461  PRO461      0.2599
    127  O         43.4920   26.9300   36.8730 O.2   461  PRO461     -0.2715
    128  CB        41.0870   24.6310   36.4070 C.3   461  PRO461      0.0310
    129  CG        40.7920   23.3830   35.6290 C.3   461  PRO461      0.0237
    130  CD        42.0070   22.5370   35.9160 C.3   461  PRO461      0.0939
    131  N         43.6260   25.1160   38.1900 N.am  462  SER462     -0.1936
    132  CA        44.2880   25.8140   39.2790 C.3   462  SER462      0.2055
    133  C         45.8130   25.9000   39.1920 C.2   462  SER462      0.2643
    134  O         46.4430   26.4590   40.0840 O.2   462  SER462     -0.2714
    135  CB        43.8890   25.1570   40.5950 C.3   462  SER462      0.2130
    136  OG        44.2880   25.9460   41.6960 O.3   462  SER462     -0.2179
    137  N         46.4040   25.3710   38.1240 N.am  463  THR463     -0.1950
    138  CA        47.8610   25.3950   37.9660 C.3   463  THR463      0.1897
    139  C         48.3780   25.9990   36.6620 C.2   463  THR463      0.2313
    140  O         49.5550   26.3430   36.5750 O.2   463  THR463     -0.2863
    141  CB        48.4690   23.9810   38.0390 C.3   463  THR463      0.1794
    142  OG1       48.2000   23.2830   36.8140 O.3   463  THR463     -0.2208
    143  CG2       47.8830   23.2050   39.2150 C.3   463  THR463      0.0378
    144  N         43.6590   12.7030   41.1450 N.3   518  ASP518     -0.1239
    145  CA        42.1930   12.6940   41.2490 C.3   518  ASP518      0.1674
    146  C         41.6890   11.4690   42.0220 C.2   518  ASP518      0.2266
    147  O         40.7030   11.5440   42.7560 O.2   518  ASP518     -0.2867
    148  CB        41.5370   12.6840   39.8670 C.3   518  ASP518      0.1410
    149  CG        41.7820   13.9600   39.0990 C.2   518  ASP518      0.3668
    150  OD1       42.1090   14.9920   39.7310 O.co2 518  ASP518     -0.2456
    151  OD2       41.6310   13.9240   37.8610 O.co2 518  ASP518     -0.2456
    152  N         41.9510   12.2790   45.6400 N.3   521  ALA521     -0.1231
    153  CA        40.8910   13.1810   46.0470 C.3   521  ALA521      0.1694
    154  C         39.5580   12.4460   46.1430 C.2   521  ALA521      0.2592
    155  O         38.6780   12.8710   46.8880 O.2   521  ALA521     -0.2718
    156  CB        40.7630   14.3430   45.0570 C.3   521  ALA521      0.0304
    157  N         39.4090   11.3590   45.3820 N.am  522  ASN522     -0.1974
    158  CA        38.1620   10.5970   45.3830 C.3   522  ASN522      0.1688
    159  C         38.1720    9.2940   46.1740 C.2   522  ASN522      0.2292
    160  O         37.3120    8.4290   45.9780 O.2   522  ASN522     -0.2864
    161  CB        37.6960   10.3340   43.9450 C.3   522  ASN522      0.1181
    162  CG        37.0820   11.5710   43.3030 C.2   522  ASN522      0.2629
    163  OD1       36.2150   12.2150   43.8900 O.2   522  ASN522     -0.2716
    164  ND2       37.5190   11.9000   42.0940 N.am  522  ASN522     -0.0877
@<TRIPOS>BOND
     1    89    88    2
     2    88    87    1
     3    87    90    1
     4    87    86    1
     5    90    91    1
     6    82    81    2
     7   122   121    1
     8    91    92   ar
     9    91    93   ar
    10   113   114    1
    11    86    81   am
    12    81    80    1
    13   129   130    1
    14   129   128    1
    15    85    83    1
    16   114   115    1
    17   114   117    1
    18   124   130    1
    19   124   115   am
    20   124   125    1
    21   121   123    1
    22   121   120    2
    23   115   116    2
    24   125   128    1
    25   125   126    1
    26    84    83    1
    27   119   120    1
    28   119   118    1
    29   140   139    2
    30   139   138    1
    31    80    83    1
    32    80    79    1
    33   142   141    1
    34   127   126    2
    35    79    70   am
    36   126   131   am
    37   117   118    1
    38   106   105    2
    39   151   149   ar
    40   138   141    1
    41   138   137    1
    42   141   143    1
    43   137   133   am
    44   131   132    1
    45    70    69    1
    46    70    71    2
    47   105   104    1
    48    97    96    2
    49    99    98    1
    50    99   100    1
    51    69    68    1
    52    69    72    1
    53    96    95    1
    54   107   104    1
    55   107   108    1
    56   149   150   ar
    57   149   148    1
    58    98    95    1
    59   133   132    1
    60   133   134    2
    61   103   104    1
    62   100   102   am
    63   100   101    2
    64   132   135    1
    65    72    73    1
    66    73    74    1
    67    95    94    1
    68   148   145    1
    69   109   108   ar
    70   109   111   ar
    71   108   110   ar
    72   135   136    1
    73    74    75    1
    74    75    76    2
    75   144   145    1
    76   145   146    1
    77   111   112   ar
    78   110   112   ar
    79    27    25    1
    80   146   147    2
    81    63    64    1
    82    63    62    1
    83    76    78    1
    84    76    77    1
    85   164   162   am
    86    26    25    1
    87    64    65    2
    88    25    24    2
    89    66    65    1
    90    62    61    1
    91    65    67    1
    92   162   163    2
    93   162   161    1
    94    24    23    1
    95     7     6    1
    96   161   158    1
    97     8     6    1
    98    61    58    1
    99    16    14   ar
   100    13    14    1
   101    13    10    1
   102    23    22    1
   103    60    59    2
   104     6     5    1
   105    58    59    1
   106    58    57    1
   107    14    15   ar
   108   156   153    1
   109    10     9    1
   110    10    11    1
   111    22    21    1
   112   157   158    1
   113   157   154   am
   114   158   159    1
   115    47    45    1
   116   152   153    1
   117    17    11   am
   118    17    18    1
   119    36    34   ar
   120     9     3   am
   121    21    18    1
   122    35    34   ar
   123    56    54   am
   124   160   159    2
   125     5     2    1
   126   153   154    1
   127   154   155    2
   128    34    33    1
   129    11    12    2
   130     4     3    2
   131     3     2    1
   132    55    54    2
   133    32    33    1
   134    32    29    1
   135    45    44    2
   136    45    46    1
   137    44    43    1
   138    18    19    1
   139    54    53    1
   140    28    19   am
   141    28    29    1
   142     2     1    1
   143    51    50    2
   144    19    20    2
   145    49    48    1
   146    49    50    1
   147    49    52    1
   148    29    30    1
   149    43    42    1
   150    42    41    1
   151    53    52    1
   152    30    31    2
   153    40    39    2
   154    41    38    1
   155    38    39    1
   156    38    37    1
