@<TRIPOS>MOLECULE
tmp/1cyjA00.pdb
 219 210 0 0 0
SMALL
GASTEIGER

@<TRIPOS>ATOM
      1  N        -33.8210  -11.9560   47.7410 N.3    10  PHE10      -0.1241
      2  CA       -33.8440  -11.9370   46.2890 C.3    10  PHE10       0.1605
      3  C        -35.1290  -11.2880   45.8060 C.2    10  PHE10       0.2264
      4  O        -35.1010  -10.4740   44.9050 O.2    10  PHE10      -0.2867
      5  CB       -33.7500  -13.3350   45.6990 C.3    10  PHE10       0.0534
      6  CG       -33.6040  -13.3510   44.1960 C.ar   10  PHE10      -0.0203
      7  CD1      -34.7180  -13.2650   43.3710 C.ar   10  PHE10      -0.0042
      8  CD2      -32.3390  -13.4300   43.6000 C.ar   10  PHE10      -0.0042
      9  CE1      -34.5750  -13.2580   41.9720 C.ar   10  PHE10      -0.0003
     10  CE2      -32.1840  -13.4230   42.2200 C.ar   10  PHE10      -0.0003
     11  CZ       -33.2940  -13.3370   41.4000 C.ar   10  PHE10      -0.0000
     12  N        -35.1010   -7.2280   46.5280 N.3    13  ASN13      -0.1225
     13  CA       -34.0280   -6.3960   46.0100 C.3    13  ASN13       0.1785
     14  C        -33.5740   -6.7530   44.5880 C.2    13  ASN13       0.2597
     15  O        -33.3140   -5.8880   43.7750 O.2    13  ASN13      -0.2718
     16  CB       -32.7920   -6.5020   46.9150 C.3    13  ASN13       0.1169
     17  CG       -33.0220   -5.9710   48.3140 C.2    13  ASN13       0.2627
     18  OD1      -32.8160   -4.8000   48.5690 O.2    13  ASN13      -0.2716
     19  ND2      -33.3540   -6.8550   49.2490 N.am   13  ASN13      -0.0877
     20  N        -33.4360   -8.0350   44.3020 N.am   14  CYS14      -0.1970
     21  CA       -32.9110   -8.4780   43.0130 C.3    14  CYS14       0.1712
     22  C        -33.8890   -8.6480   41.8660 C.2    14  CYS14       0.2296
     23  O        -33.5030   -8.5710   40.7030 O.2    14  CYS14      -0.2864
     24  CB       -32.1460   -9.7800   43.2350 C.3    14  CYS14       0.0983
     25  SG       -31.1950   -9.7170   44.7880 S.3    14  CYS14      -0.0798
     26  N        -36.0330   -6.6940   40.6710 N.3    16  ALA16      -0.1231
     27  CA       -36.2630   -5.5190   39.8520 C.3    16  ALA16       0.1694
     28  C        -35.5100   -5.7000   38.5320 C.2    16  ALA16       0.2592
     29  O        -35.8490   -5.0820   37.5180 O.2    16  ALA16      -0.2718
     30  CB       -35.7800   -4.2590   40.5730 C.3    16  ALA16       0.0304
     31  N        -34.5140   -6.5850   38.5330 N.am   17  CYS17      -0.1956
     32  CA       -33.7090   -6.8250   37.3420 C.3    17  CYS17       0.1843
     33  C        -33.5480   -8.2940   36.9340 C.2    17  CYS17       0.2625
     34  O        -33.2770   -8.6050   35.7660 O.2    17  CYS17      -0.2714
     35  CB       -32.3240   -6.2480   37.5570 C.3    17  CYS17       0.0997
     36  SG       -32.2560   -4.4490   37.7320 S.3    17  CYS17      -0.0797
     37  N        -33.6780   -9.1880   37.9020 N.am   18  HIS18      -0.1973
     38  CA       -33.4930  -10.5960   37.6460 C.3    18  HIS18       0.1656
     39  C        -34.7480  -11.3850   37.8300 C.2    18  HIS18       0.2291
     40  O        -34.6970  -12.5130   38.2970 O.2    18  HIS18      -0.2864
     41  CB       -32.3980  -11.1600   38.5450 C.3    18  HIS18       0.0771
     42  CG       -31.1010  -10.4420   38.2080 C.ar   18  HIS18       0.0820
     43  ND1      -30.4150  -10.5460   37.0190 N.ar   18  HIS18      -0.2267
     44  CD2      -30.2640   -9.7550   39.1190 C.ar   18  HIS18       0.1154
     45  CE1      -29.2210   -9.9690   37.2180 C.ar   18  HIS18       0.1986
     46  NE2      -29.0170   -9.5400   38.4390 N.ar   18  HIS18      -0.2212
     47  N        -32.4640  -11.2660   32.9640 N.3    23  ASN23      -0.1240
     48  CA       -31.6640  -10.0620   33.1030 C.3    23  ASN23       0.1653
     49  C        -32.1860   -9.0090   32.1300 C.2    23  ASN23       0.2266
     50  O        -31.9350   -9.0530   30.9140 O.2    23  ASN23      -0.2867
     51  CB       -30.1650  -10.3040   32.9290 C.3    23  ASN23       0.1155
     52  CG       -29.3380   -9.1440   33.4560 C.2    23  ASN23       0.2627
     53  OD1      -29.8110   -8.0130   33.5140 O.2    23  ASN23      -0.2716
     54  ND2      -28.1130   -9.4220   33.8610 N.am   23  ASN23      -0.0877
     55  N        -31.4440   -5.7730   32.0110 N.3    25  VAL25      -0.1231
     56  CA       -30.5060   -4.7480   31.5880 C.3    25  VAL25       0.1692
     57  C        -29.6240   -5.3240   30.5030 C.2    25  VAL25       0.2591
     58  O        -29.4180   -4.7160   29.4660 O.2    25  VAL25      -0.2718
     59  CB       -29.6630   -4.2290   32.7870 C.3    25  VAL25       0.0266
     60  CG1      -28.6420   -3.2490   32.3250 C.3    25  VAL25       0.0020
     61  CG2      -30.5560   -3.5530   33.8190 C.3    25  VAL25       0.0020
     62  N        -29.1710   -6.5480   30.7240 N.am   26  MET26      -0.1979
     63  CA       -28.3020   -7.2500   29.8020 C.3    26  MET26       0.1605
     64  C        -28.8290   -8.6540   29.6090 C.2    26  MET26       0.2287
     65  O        -28.3780   -9.5710   30.2770 O.2    26  MET26      -0.2864
     66  CB       -26.9110   -7.3180   30.4210 C.3    26  MET26       0.0413
     67  CG       -25.8950   -6.5140   29.6910 C.3    26  MET26       0.0598
     68  SD       -24.5030   -6.2270   30.7040 S.3    26  MET26      -0.1393
     69  CE       -24.8180   -4.4950   31.1940 C.3    26  MET26       0.0692
     70  N        -26.6350  -12.0460   30.2880 N.3    29  LYS29      -0.1231
     71  CA       -26.1570  -12.3450   31.6350 C.3    29  LYS29       0.1693
     72  C        -27.3110  -12.7280   32.5720 C.2    29  LYS29       0.2593
     73  O        -27.6730  -11.9600   33.4650 O.2    29  LYS29      -0.2718
     74  CB       -25.4340  -11.1370   32.1970 C.3    29  LYS29       0.0285
     75  CG       -23.9980  -11.0180   31.7630 C.3    29  LYS29       0.0035
     76  CD       -23.8910  -10.3630   30.4300 C.3    29  LYS29       0.0206
     77  CE       -22.4320  -10.1530   30.0410 C.3    29  LYS29       0.1093
     78  NZ       -21.6360   -9.5260   31.1260 N.3    29  LYS29      -0.1314
     79  N        -27.8860  -13.9060   32.3470 N.am   30  THR30      -0.1939
     80  CA       -28.9900  -14.4050   33.1550 C.3    30  THR30       0.2028
     81  C        -28.4790  -15.2070   34.3700 C.2    30  THR30       0.2642
     82  O        -27.2980  -15.5300   34.4760 O.2    30  THR30      -0.2714
     83  CB       -29.9100  -15.3160   32.3390 C.3    30  THR30       0.1808
     84  OG1      -29.2120  -16.5290   32.0460 O.3    30  THR30      -0.2208
     85  CG2      -30.3310  -14.6430   31.0390 C.3    30  THR30       0.0379
     86  N        -29.3950  -15.6120   35.2420 N.am   31  LEU31      -0.1977
     87  CA       -28.9940  -16.3510   36.4280 C.3    31  LEU31       0.1596
     88  C        -28.9890  -17.8760   36.2770 C.2    31  LEU31       0.2287
     89  O        -29.0540  -18.6210   37.2620 O.2    31  LEU31      -0.2864
     90  CB       -29.8040  -15.8820   37.6420 C.3    31  LEU31       0.0297
     91  CG       -29.5560  -14.4470   38.1230 C.3    31  LEU31       0.0022
     92  CD1      -29.9090  -13.5330   37.0140 C.3    31  LEU31       0.0001
     93  CD2      -30.4050  -14.1000   39.3450 C.3    31  LEU31       0.0001
     94  N        -25.1310  -19.4580   32.0610 N.3    35  ALA35      -0.1231
     95  CA       -24.8380  -18.0470   31.8920 C.3    35  ALA35       0.1694
     96  C        -23.7550  -17.7530   32.9180 C.2    35  ALA35       0.2591
     97  O        -22.7330  -17.1670   32.5980 O.2    35  ALA35      -0.2718
     98  CB       -26.0360  -17.2310   32.2040 C.3    35  ALA35       0.0304
     99  N        -24.0010  -18.1850   34.1540 N.am   36  LEU36      -0.1980
    100  CA       -23.0680  -18.0050   35.2620 C.3    36  LEU36       0.1596
    101  C        -21.7040  -18.5840   34.9360 C.2    36  LEU36       0.2287
    102  O        -20.6940  -17.9520   35.1690 O.2    36  LEU36      -0.2864
    103  CB       -23.6000  -18.6640   36.5250 C.3    36  LEU36       0.0297
    104  CG       -24.3280  -17.9220   37.6500 C.3    36  LEU36       0.0022
    105  CD1      -24.8730  -16.6010   37.2230 C.3    36  LEU36       0.0001
    106  CD2      -25.4580  -18.7980   38.1700 C.3    36  LEU36       0.0001
    107  N        -20.4680  -16.0590   32.0040 N.3    39  TYR39      -0.1227
    108  CA       -20.2640  -14.6210   32.3040 C.3    39  TYR39       0.1736
    109  C        -19.8620  -14.1260   33.6810 C.2    39  TYR39       0.2595
    110  O        -19.4290  -12.9840   33.7980 O.2    39  TYR39      -0.2718
    111  CB       -21.5090  -13.8150   31.9140 C.3    39  TYR39       0.0548
    112  CG       -21.9560  -14.1190   30.5520 C.ar   39  TYR39      -0.0200
    113  CD1      -21.2690  -13.6160   29.4730 C.ar   39  TYR39      -0.0009
    114  CD2      -23.0020  -14.9840   30.3290 C.ar   39  TYR39      -0.0009
    115  CE1      -21.5940  -13.9650   28.1970 C.ar   39  TYR39       0.0417
    116  CE2      -23.3440  -15.3530   29.0470 C.ar   39  TYR39       0.0417
    117  CZ       -22.6270  -14.8330   27.9860 C.ar   39  TYR39       0.1957
    118  OH       -22.9340  -15.1750   26.7010 O.3    39  TYR39      -0.2866
    119  N        -20.0960  -14.9100   34.7320 N.am   40  LEU40      -0.1980
    120  CA       -19.7400  -14.4320   36.0810 C.3    40  LEU40       0.1596
    121  C        -18.2630  -14.6260   36.3800 C.2    40  LEU40       0.2287
    122  O        -17.7080  -15.7030   36.1040 O.2    40  LEU40      -0.2864
    123  CB       -20.5910  -15.1080   37.1700 C.3    40  LEU40       0.0297
    124  CG       -20.2840  -14.7670   38.6500 C.3    40  LEU40       0.0022
    125  CD1      -20.4710  -13.2740   38.9280 C.3    40  LEU40       0.0001
    126  CD2      -21.1510  -15.6130   39.5840 C.3    40  LEU40       0.0001
    127  N        -20.7160  -15.4270   43.4130 N.3    49  ILE49      -0.1245
    128  CA       -21.9580  -14.6810   43.4680 C.3    49  ILE49       0.1561
    129  C        -21.9170  -13.6750   44.6340 C.2    49  ILE49       0.2260
    130  O        -22.3680  -12.5370   44.5020 O.2    49  ILE49      -0.2867
    131  CB       -23.1340  -15.6520   43.5800 C.3    49  ILE49       0.0252
    132  CG1      -23.1310  -16.6020   42.3830 C.3    49  ILE49       0.0019
    133  CG2      -24.4310  -14.9070   43.5420 C.3    49  ILE49       0.0019
    134  CD1      -24.1250  -17.7460   42.4890 C.3    49  ILE49       0.0001
    135  N        -19.7450  -10.7320   43.6230 N.3    52  GLN52      -0.1231
    136  CA       -20.4630   -9.8790   42.6900 C.3    52  GLN52       0.1698
    137  C        -21.6220   -9.1310   43.3600 C.2    52  GLN52       0.2592
    138  O        -21.9520   -8.0170   42.9500 O.2    52  GLN52      -0.2718
    139  CB       -20.9570  -10.6680   41.4710 C.3    52  GLN52       0.0381
    140  CG       -21.9020   -9.8800   40.5750 C.3    52  GLN52       0.0905
    141  CD       -21.4370   -9.7940   39.1750 C.2    52  GLN52       0.2608
    142  OE1      -22.2310   -9.7210   38.2550 O.2    52  GLN52      -0.2717
    143  NE2      -20.1440   -9.7750   38.9970 N.am   52  GLN52      -0.0878
    144  N        -22.2380   -9.7020   44.3940 N.am   53  VAL53      -0.1980
    145  CA       -23.3430   -9.0160   45.0840 C.3    53  VAL53       0.1595
    146  C        -22.8610   -7.8430   45.9460 C.2    53  VAL53       0.2287
    147  O        -23.4420   -6.7700   45.9130 O.2    53  VAL53      -0.2864
    148  CB       -24.1570   -9.9930   45.9440 C.3    53  VAL53       0.0276
    149  CG1      -25.0640   -9.2390   46.9170 C.3    53  VAL53       0.0022
    150  CG2      -24.9950  -10.8910   45.0390 C.3    53  VAL53       0.0022
    151  N        -21.1600   -4.7580   39.6860 N.3    57  LYS57      -0.1231
    152  CA       -20.4980   -4.9790   38.3980 C.3    57  LYS57       0.1693
    153  C        -21.2550   -4.2060   37.3240 C.2    57  LYS57       0.2593
    154  O        -22.4070   -4.5170   36.9960 O.2    57  LYS57      -0.2718
    155  CB       -20.4110   -6.4750   38.0700 C.3    57  LYS57       0.0285
    156  CG       -19.5890   -6.8490   36.8330 C.3    57  LYS57       0.0035
    157  CD       -18.1580   -6.3030   36.8470 C.3    57  LYS57       0.0206
    158  CE       -17.1610   -7.1540   37.6270 C.3    57  LYS57       0.1093
    159  NZ       -17.2500   -7.0520   39.0990 N.3    57  LYS57      -0.1314
    160  N        -20.6110   -3.1460   36.8430 N.am   58  GLY58      -0.1942
    161  CA       -21.1960   -2.2820   35.8340 C.3    58  GLY58       0.2014
    162  C        -22.5440   -1.7110   36.2400 C.2    58  GLY58       0.2639
    163  O        -22.6660   -1.0160   37.2580 O.2    58  GLY58      -0.2714
    164  N        -23.5790   -2.0670   35.4800 N.am   59  ALA59      -0.1963
    165  CA       -24.9460   -1.6050   35.7300 C.3    59  ALA59       0.1728
    166  C        -25.6050   -2.2860   36.9260 C.2    59  ALA59       0.2616
    167  O        -26.7700   -2.0090   37.2430 O.2    59  ALA59      -0.2715
    168  CB       -25.8110   -1.7820   34.4630 C.3    59  ALA59       0.0334
    169  N        -24.8990   -3.2620   37.5050 N.am   60  MET60      -0.1964
    170  CA       -25.3790   -3.9410   38.6940 C.3    60  MET60       0.1722
    171  C        -24.7830   -3.1740   39.8610 C.2    60  MET60       0.2458
    172  O        -23.5500   -3.0640   39.9770 O.2    60  MET60      -0.2730
    173  CB       -24.8830   -5.3780   38.7580 C.3    60  MET60       0.0427
    174  CG       -25.2090   -5.9800   40.0980 C.3    60  MET60       0.0599
    175  SD       -25.5170   -7.6720   40.0460 S.3    60  MET60      -0.1393
    176  CE       -25.0700   -8.0730   41.7450 C.3    60  MET60       0.0692
    177  N        -25.6400   -2.6490   40.7550 N.am   61  PRO61      -0.2727
    178  CA       -25.1330   -1.8890   41.9090 C.3    61  PRO61       0.1402
    179  C        -24.4720   -2.8400   42.8930 C.2    61  PRO61       0.2269
    180  O        -24.6790   -4.0520   42.8260 O.2    61  PRO61      -0.2865
    181  CB       -26.4070   -1.2980   42.5520 C.3    61  PRO61       0.0296
    182  CG       -27.5440   -1.7010   41.6310 C.3    61  PRO61       0.0237
    183  CD       -27.0720   -2.9330   40.9080 C.3    61  PRO61       0.0939
    184  N        -23.9980   -4.0840   46.8070 N.3    63  TRP63      -0.1241
    185  CA       -24.9660   -4.2190   47.8820 C.3    63  TRP63       0.1605
    186  C        -24.3900   -4.1430   49.2680 C.2    63  TRP63       0.2264
    187  O        -25.1110   -4.2470   50.2420 O.2    63  TRP63      -0.2867
    188  CB       -25.7590   -5.5100   47.7010 C.3    63  TRP63       0.0550
    189  CG       -26.6360   -5.4500   46.4790 C.ar   63  TRP63       0.0003
    190  CD1      -26.2980   -5.8060   45.1950 C.ar   63  TRP63       0.0946
    191  CD2      -27.9390   -4.8660   46.3920 C.ar   63  TRP63       0.0152
    192  NE1      -27.2970   -5.4500   44.3130 N.ar   63  TRP63      -0.2442
    193  CE2      -28.3150   -4.8740   45.0220 C.ar   63  TRP63       0.0810
    194  CE3      -28.8280   -4.3390   47.3370 C.ar   63  TRP63       0.0012
    195  CZ2      -29.5330   -4.3730   44.5820 C.ar   63  TRP63       0.0191
    196  CZ3      -30.0420   -3.8470   46.8960 C.ar   63  TRP63       0.0001
    197  CH2      -30.3850   -3.8660   45.5310 C.ar   63  TRP63       0.0015
    198  N        -27.2960   -4.2550   52.3580 N.3    67  LEU67      -0.1245
    199  CA       -27.6250   -5.5300   52.9760 C.3    67  LEU67       0.1561
    200  C        -26.6430   -5.9080   54.0720 C.2    67  LEU67       0.2260
    201  O        -25.6070   -5.2790   54.2280 O.2    67  LEU67      -0.2867
    202  CB       -27.6670   -6.6380   51.9220 C.3    67  LEU67       0.0270
    203  CG       -28.5300   -6.3750   50.6950 C.3    67  LEU67       0.0019
    204  CD1      -28.5540   -7.6110   49.8090 C.3    67  LEU67       0.0001
    205  CD2      -29.9270   -5.9970   51.1200 C.3    67  LEU67       0.0001
    206  N        -28.7340  -14.8410   50.0210 N.3    75  VAL75      -0.1245
    207  CA       -29.1670  -14.5630   48.6510 C.3    75  VAL75       0.1561
    208  C        -28.2810  -15.2990   47.6400 C.2    75  VAL75       0.2260
    209  O        -28.7660  -15.8710   46.6810 O.2    75  VAL75      -0.2867
    210  CB       -29.2640  -13.0130   48.3510 C.3    75  VAL75       0.0252
    211  CG1      -27.9000  -12.3810   48.0670 C.3    75  VAL75       0.0019
    212  CG2      -30.2340  -12.7570   47.1660 C.3    75  VAL75       0.0019
    213  N        -29.5010  -18.1330   45.1070 N.3    79  VAL79      -0.1245
    214  CA       -29.3420  -18.0140   43.6780 C.3    79  VAL79       0.1561
    215  C        -28.6260  -19.2580   43.1710 C.2    79  VAL79       0.2260
    216  O        -28.9280  -19.7440   42.0830 O.2    79  VAL79      -0.2867
    217  CB       -28.5360  -16.7440   43.3110 C.3    79  VAL79       0.0252
    218  CG1      -28.1300  -16.7620   41.8460 C.3    79  VAL79       0.0019
    219  CG2      -29.3720  -15.5310   43.5990 C.3    79  VAL79       0.0019
@<TRIPOS>BOND
     1   118   117    1
     2   117   115   ar
     3   117   116   ar
     4   115   113   ar
     5   116   114   ar
     6    58    57    2
     7   113   112   ar
     8    64    63    1
     9    64    65    2
    10    67    66    1
    11    67    68    1
    12    63    66    1
    13    63    62    1
    14    77    76    1
    15    77    78    1
    16    70    71    1
    17   114   112   ar
    18    76    75    1
    19    57    62   am
    20    57    56    1
    21   112   111    1
    22    68    69    1
    23    50    49    2
    24    85    83    1
    25    56    55    1
    26    56    59    1
    27    71    74    1
    28    71    72    1
    29    75    74    1
    30    95    94    1
    31    95    98    1
    32    95    96    1
    33   111   108    1
    34   107   108    1
    35    84    83    1
    36    49    48    1
    37   108   109    1
    38    60    59    1
    39    83    80    1
    40    79    72   am
    41    79    80    1
    42    72    73    2
    43    97    96    2
    44    59    61    1
    45    96    99   am
    46    51    48    1
    47    51    52    1
    48    47    48    1
    49    80    81    1
    50    52    53    2
    51    52    54   am
    52   109   110    2
    53   109   119   am
    54    99   100    1
    55    81    82    2
    56    81    86   am
    57   168   165    1
    58   119   120    1
    59   101   102    2
    60   101   100    1
    61    86    87    1
    62   100   103    1
    63   164   165    1
    64   164   162   am
    65   165   166    1
    66    34    33    2
    67   161   162    1
    68   161   160    1
    69   120   121    1
    70   120   123    1
    71   122   121    2
    72   162   163    2
    73    88    87    1
    74    88    89    2
    75    87    90    1
    76   103   104    1
    77   156   157    1
    78   156   155    1
    79   160   153   am
    80   157   158    1
    81   166   167    2
    82   166   169   am
    83    33    32    1
    84    33    37   am
    85   154   153    2
    86    92    91    1
    87    43    45   ar
    88    43    42   ar
    89   123   124    1
    90    45    46   ar
    91   105   104    1
    92   153   152    1
    93    32    35    1
    94    32    31    1
    95   169   170    1
    96    29    28    2
    97    35    36    1
    98   158   159    1
    99    90    91    1
   100    38    39    1
   101    38    37    1
   102    38    41    1
   103   104   106    1
   104    39    40    2
   105   155   152    1
   106    91    93    1
   107    42    41    1
   108    42    44   ar
   109   142   141    2
   110   152   151    1
   111    46    44   ar
   112    28    31   am
   113    28    27    1
   114   124   125    1
   115   124   126    1
   116   170   173    1
   117   170   171    1
   118   173   174    1
   119   143   141   am
   120   141   140    1
   121    27    30    1
   122    27    26    1
   123   171   172    2
   124   171   177   am
   125   175   174    1
   126   175   176    1
   127   140   139    1
   128    23    22    2
   129   177   183    1
   130   177   178    1
   131   183   182    1
   132    11     9   ar
   133    11    10   ar
   134   139   136    1
   135   182   181    1
   136   218   217    1
   137    22    21    1
   138   178   181    1
   139   178   179    1
   140     9     7   ar
   141   216   215    2
   142    10     8   ar
   143   132   134    1
   144   132   131    1
   145   136   137    1
   146   136   135    1
   147   180   179    2
   148   138   137    2
   149    21    24    1
   150    21    20    1
   151   215   214    1
   152    24    25    1
   153   217   219    1
   154   217   214    1
   155   137   144   am
   156     7     6   ar
   157   127   128    1
   158   128   131    1
   159   128   129    1
   160   133   131    1
   161     8     6   ar
   162   214   213    1
   163    15    14    2
   164     6     5    1
   165    20    14   am
   166   192   193   ar
   167   192   190   ar
   168   144   145    1
   169   130   129    2
   170   195   193   ar
   171   195   197   ar
   172    14    13    1
   173     4     3    2
   174   193   191   ar
   175   150   148    1
   176   145   148    1
   177   145   146    1
   178   190   189   ar
   179   197   196   ar
   180     5     2    1
   181     3     2    1
   182   147   146    2
   183   148   149    1
   184    13    12    1
   185    13    16    1
   186     2     1    1
   187   191   189   ar
   188   191   194   ar
   189   189   188    1
   190   209   208    2
   191   184   185    1
   192   196   194   ar
   193    16    17    1
   194   212   210    1
   195   208   207    1
   196   188   185    1
   197   185   186    1
   198   211   210    1
   199    17    18    2
   200    17    19   am
   201   210   207    1
   202   207   206    1
   203   186   187    2
   204   204   203    1
   205   203   205    1
   206   203   202    1
   207   202   199    1
   208   198   199    1
   209   199   200    1
   210   200   201    2
