@<TRIPOS>MOLECULE
tmp/1cynA00.pdb
 189 183 0 0 0
SMALL
GASTEIGER

@<TRIPOS>ATOM
      1  N         27.3600   21.9680   43.6810 N.3    56  HIS56      -0.1226
      2  CA        27.3710   23.3440   43.2320 C.3    56  HIS56       0.1752
      3  C         26.1260   24.1690   43.5120 C.2    56  HIS56       0.2595
      4  O         26.1820   25.3850   43.3190 O.2    56  HIS56      -0.2718
      5  CB        27.6430   23.3890   41.7210 C.3    56  HIS56       0.0759
      6  CG        26.5930   22.7380   40.8440 C.ar   56  HIS56       0.0818
      7  ND1       26.4300   21.4450   40.6020 N.ar   56  HIS56      -0.2268
      8  CD2       25.6300   23.4280   40.1510 C.ar   56  HIS56       0.1154
      9  CE1       25.4040   21.3200   39.8000 C.ar   56  HIS56       0.1986
     10  NE2       24.9370   22.5070   39.5350 N.ar   56  HIS56      -0.2212
     11  N         25.0030   23.5650   43.9260 N.am   57  ARG57      -0.1980
     12  CA        23.7640   24.3280   44.0450 C.3    57  ARG57       0.1597
     13  C         22.9500   23.7380   45.1870 C.2    57  ARG57       0.2287
     14  O         22.6610   22.5290   45.1510 O.2    57  ARG57      -0.2864
     15  CB        22.9860   24.2400   42.7210 C.3    57  ARG57       0.0334
     16  CG        21.7340   25.1040   42.6300 C.3    57  ARG57       0.0492
     17  CD        21.2950   25.2200   41.1810 C.3    57  ARG57       0.2205
     18  NE        19.9720   25.8120   41.0680 N.pl3  57  ARG57      -0.0865
     19  CZ        18.8280   25.1030   40.9950 C.cat  57  ARG57       0.5346
     20  NH1       18.7960   23.7700   41.0340 N.pl3  57  ARG57       0.1354
     21  NH2       17.6730   25.7460   40.8170 N.pl3  57  ARG57       0.1354
     22  N         19.6670   24.6750   47.9140 N.3    59  ILE59      -0.1245
     23  CA        18.5920   25.6010   48.2020 C.3    59  ILE59       0.1561
     24  C         17.8780   24.9700   49.3960 C.2    59  ILE59       0.2260
     25  O         17.3570   23.8490   49.3400 O.2    59  ILE59      -0.2867
     26  CB        17.6530   25.7110   46.9560 C.3    59  ILE59       0.0252
     27  CG1       18.4250   26.2560   45.7430 C.3    59  ILE59       0.0019
     28  CG2       16.4400   26.5890   47.3330 C.3    59  ILE59       0.0019
     29  CD1       17.7230   26.2630   44.3750 C.3    59  ILE59       0.0001
     30  N         15.1670   24.0280   52.0740 N.3    61  ASP61      -0.1225
     31  CA        13.8050   23.5550   51.8700 C.3    61  ASP61       0.1805
     32  C         13.5030   23.0930   50.4510 C.2    61  ASP61       0.2598
     33  O         12.3480   23.1410   50.0040 O.2    61  ASP61      -0.2718
     34  CB        12.7850   24.6580   52.2890 C.3    61  ASP61       0.1424
     35  CG        13.0100   25.1440   53.7210 C.2    61  ASP61       0.3668
     36  OD1       13.0790   24.3140   54.6220 O.co2  61  ASP61      -0.2456
     37  OD2       13.1470   26.3540   53.9260 O.co2  61  ASP61      -0.2456
     38  N         14.5410   22.6790   49.7150 N.am   62  PHE62      -0.1962
     39  CA        14.3070   22.1410   48.4050 C.3    62  PHE62       0.1771
     40  C         15.1990   20.9390   48.1650 C.2    62  PHE62       0.2619
     41  O         14.7280   19.8060   48.2300 O.2    62  PHE62      -0.2715
     42  CB        14.5390   23.2520   47.3410 C.3    62  PHE62       0.0574
     43  CG        14.3070   22.8180   45.8930 C.ar   62  PHE62      -0.0200
     44  CD1       13.4640   21.7490   45.5710 C.ar   62  PHE62      -0.0042
     45  CD2       14.9750   23.5060   44.8800 C.ar   62  PHE62      -0.0042
     46  CE1       13.2980   21.3680   44.2280 C.ar   62  PHE62      -0.0003
     47  CE2       14.8060   23.1260   43.5560 C.ar   62  PHE62      -0.0003
     48  CZ        13.9700   22.0550   43.2200 C.ar   62  PHE62      -0.0000
     49  N         16.4810   21.1050   47.9040 N.am   63  MET63      -0.1977
     50  CA        17.3270   19.9830   47.5080 C.3    63  MET63       0.1605
     51  C         18.7620   20.4630   47.4880 C.2    63  MET63       0.2287
     52  O         19.0130   21.6840   47.5610 O.2    63  MET63      -0.2864
     53  CB        16.9210   19.4710   46.0870 C.3    63  MET63       0.0413
     54  CG        17.0140   20.4810   44.9100 C.3    63  MET63       0.0598
     55  SD        18.6970   20.6900   44.2690 S.3    63  MET63      -0.1393
     56  CE        18.9150   22.4440   44.3870 C.3    63  MET63       0.0692
     57  N         22.2400   19.7480   45.0060 N.3    65  GLN65      -0.1245
     58  CA        22.5370   19.2310   43.6750 C.3    65  GLN65       0.1566
     59  C         24.0270   19.1250   43.4540 C.2    65  GLN65       0.2260
     60  O         24.7780   20.0760   43.7540 O.2    65  GLN65      -0.2867
     61  CB        21.9230   20.1930   42.6310 C.3    65  GLN65       0.0367
     62  CG        22.1870   19.8320   41.1630 C.3    65  GLN65       0.0905
     63  CD        21.6780   20.8680   40.1810 C.2    65  GLN65       0.2608
     64  OE1       21.0610   21.8510   40.6020 O.2    65  GLN65      -0.2717
     65  NE2       21.9260   20.6870   38.8740 N.am   65  GLN65      -0.0878
     66  N         30.0580   23.4370   37.5190 N.3    73  ASP73      -0.1225
     67  CA        29.1090   24.5650   37.5550 C.3    73  ASP73       0.1805
     68  C         27.6680   24.2790   37.1450 C.2    73  ASP73       0.2598
     69  O         26.8680   25.2040   37.0890 O.2    73  ASP73      -0.2718
     70  CB        29.6280   25.7120   36.6560 C.3    73  ASP73       0.1424
     71  CG        29.7620   25.4210   35.1590 C.2    73  ASP73       0.3668
     72  OD1       29.5660   24.2830   34.7360 O.co2  73  ASP73      -0.2456
     73  OD2       30.0700   26.3430   34.3980 O.co2  73  ASP73      -0.2456
     74  N         27.2930   23.0280   36.8550 N.am   74  GLY74      -0.1942
     75  CA        25.9490   22.7460   36.3900 C.3    74  GLY74       0.2014
     76  C         25.8810   22.4850   34.8980 C.2    74  GLY74       0.2640
     77  O         24.9300   21.8590   34.4370 O.2    74  GLY74      -0.2714
     78  N         26.8820   22.8590   34.1020 N.am   75  THR75      -0.1936
     79  CA        26.8110   22.6270   32.6710 C.3    75  THR75       0.2028
     80  C         27.5130   21.3590   32.2260 C.2    75  THR75       0.2642
     81  O         27.3260   20.9940   31.0620 O.2    75  THR75      -0.2714
     82  CB        27.4110   23.8510   31.8820 C.3    75  THR75       0.1808
     83  OG1       28.7940   23.9130   32.2010 O.3    75  THR75      -0.2208
     84  CG2       26.7990   25.1960   32.2580 C.3    75  THR75       0.0379
     85  N         28.2510   20.6380   33.0960 N.am   76  GLY76      -0.1954
     86  CA        29.0530   19.5010   32.6490 C.3    76  GLY76       0.1869
     87  C         28.5590   18.1610   33.1550 C.2    76  GLY76       0.2309
     88  O         27.4040   17.9830   33.5660 O.2    76  GLY76      -0.2863
     89  N         25.1280   12.0390   27.3220 N.3    84  ARG84      -0.1245
     90  CA        23.7960   12.0990   27.9180 C.3    84  ARG84       0.1563
     91  C         23.0930   10.7890   27.6250 C.2    84  ARG84       0.2260
     92  O         23.5170   10.0710   26.7010 O.2    84  ARG84      -0.2867
     93  CB        22.9160   13.2160   27.3470 C.3    84  ARG84       0.0307
     94  CG        23.4070   14.6520   27.5990 C.3    84  ARG84       0.0489
     95  CD        23.4350   14.9570   29.0900 C.3    84  ARG84       0.2205
     96  NE        23.9910   16.2670   29.3720 N.pl3  84  ARG84      -0.0865
     97  CZ        25.2380   16.4630   29.8240 C.cat  84  ARG84       0.5346
     98  NH1       26.0760   15.4550   30.0530 N.pl3  84  ARG84       0.1354
     99  NH2       25.6500   17.7130   30.0600 N.pl3  84  ARG84       0.1354
    100  N         19.1760   15.0390   37.7240 N.3   103  ALA103     -0.1231
    101  CA        18.9720   16.3890   37.2290 C.3   103  ALA103      0.1694
    102  C         19.1090   16.2550   35.6970 C.2   103  ALA103      0.2592
    103  O         19.7170   15.3020   35.1770 O.2   103  ALA103     -0.2718
    104  CB        20.0550   17.3210   37.7510 C.3   103  ALA103      0.0304
    105  N         18.5870   17.1860   34.9030 N.am  104  ASN104     -0.1960
    106  CA        18.6900   17.0410   33.4510 C.3   104  ASN104      0.1819
    107  C         18.4680   18.3890   32.8120 C.2   104  ASN104      0.2621
    108  O         18.2870   19.3900   33.5270 O.2   104  ASN104     -0.2715
    109  CB        17.6390   16.0620   32.9220 C.3   104  ASN104      0.1195
    110  CG        16.2050   16.3800   33.2940 C.2   104  ASN104      0.2630
    111  OD1       15.5160   15.4940   33.7940 O.2   104  ASN104     -0.2716
    112  ND2       15.6500   17.5720   33.1750 N.am  104  ASN104     -0.0877
    113  N         18.4220   18.4620   31.4820 N.am  105  ALA105     -0.1963
    114  CA        18.1120   19.7190   30.8040 C.3   105  ALA105      0.1728
    115  C         16.8920   19.4940   29.9100 C.2   105  ALA105      0.2616
    116  O         16.8360   19.9480   28.7680 O.2   105  ALA105     -0.2715
    117  CB        19.3100   20.1520   29.9510 C.3   105  ALA105      0.0334
    118  N         15.8930   18.7860   30.4410 N.am  106  GLY106     -0.1955
    119  CA        14.6980   18.4830   29.6950 C.3   106  GLY106      0.1869
    120  C         14.7080   16.9920   29.4110 C.2   106  GLY106      0.2309
    121  O         15.5560   16.2570   29.9290 O.2   106  GLY106     -0.2863
    122  N         18.0590   13.8410   28.8320 N.3   109  THR109     -0.1218
    123  CA        19.3600   14.4760   28.9160 C.3   109  THR109      0.1862
    124  C         20.0190   14.1720   30.2700 C.2   109  THR109      0.2287
    125  O         20.5640   15.0390   30.9590 O.2   109  THR109     -0.2866
    126  CB        19.2250   16.0130   28.6950 C.3   109  THR109      0.1770
    127  OG1       18.2450   16.4680   29.6020 O.3   109  THR109     -0.2211
    128  CG2       18.8070   16.3850   27.2960 C.3   109  THR109      0.0375
    129  N         24.7020   14.4390   36.8230 N.3   113  GLN113     -0.1245
    130  CA        24.1940   15.2880   37.8890 C.3   113  GLN113      0.1566
    131  C         22.9620   14.6940   38.5390 C.2   113  GLN113      0.2260
    132  O         22.0830   14.1290   37.8630 O.2   113  GLN113     -0.2867
    133  CB        23.8410   16.6630   37.3810 C.3   113  GLN113      0.0367
    134  CG        25.1150   17.4780   37.2050 C.3   113  GLN113      0.0905
    135  CD        24.8630   18.9070   36.7800 C.2   113  GLN113      0.2608
    136  OE1       24.2800   19.7040   37.5170 O.2   113  GLN113     -0.2717
    137  NE2       25.2830   19.2850   35.5750 N.am  113  GLN113     -0.0878
    138  N         20.3220   15.0300   42.4050 N.3   115  PHE115     -0.1241
    139  CA        19.9890   15.8770   43.5380 C.3   115  PHE115      0.1605
    140  C         19.3780   14.9740   44.5950 C.2   115  PHE115      0.2264
    141  O         18.9210   13.8570   44.3090 O.2   115  PHE115     -0.2867
    142  CB        18.9930   17.0110   43.1540 C.3   115  PHE115      0.0534
    143  CG        17.6600   16.6380   42.4950 C.ar  115  PHE115     -0.0203
    144  CD1       17.6100   16.2890   41.1280 C.ar  115  PHE115     -0.0042
    145  CD2       16.4740   16.6730   43.2460 C.ar  115  PHE115     -0.0042
    146  CE1       16.3940   15.9800   40.5120 C.ar  115  PHE115     -0.0003
    147  CE2       15.2570   16.3640   42.6120 C.ar  115  PHE115     -0.0003
    148  CZ        15.2230   16.0220   41.2570 C.ar  115  PHE115     -0.0000
    149  N          6.1600   18.4260   42.2000 N.3   123  TRP123     -0.1227
    150  CA         6.1780   19.0390   40.8890 C.3   123  TRP123      0.1737
    151  C          7.2560   18.4690   39.9690 C.2   123  TRP123      0.2595
    152  O          7.2150   18.6720   38.7480 O.2   123  TRP123     -0.2718
    153  CB         6.3250   20.5600   41.0530 C.3   123  TRP123      0.0564
    154  CG         7.5600   21.0500   41.8160 C.ar  123  TRP123      0.0003
    155  CD1        8.6740   21.4380   41.1250 C.ar  123  TRP123      0.0946
    156  CD2        7.7210   21.1440   43.1850 C.ar  123  TRP123      0.0152
    157  NE1        9.5450   21.7650   42.0420 N.ar  123  TRP123     -0.2442
    158  CE2        9.0330   21.6090   43.2740 C.ar  123  TRP123      0.0810
    159  CE3        6.9860   20.9170   44.3520 C.ar  123  TRP123      0.0012
    160  CZ2        9.6290   21.8510   44.5090 C.ar  123  TRP123      0.0191
    161  CZ3        7.5750   21.1600   45.5920 C.ar  123  TRP123      0.0001
    162  CH2        8.8910   21.6240   45.6710 C.ar  123  TRP123      0.0015
    163  N          8.2260   17.7050   40.4730 N.am  124  LEU124     -0.1980
    164  CA         9.2320   17.1200   39.6070 C.3   124  LEU124      0.1596
    165  C          8.8960   15.7050   39.1960 C.2   124  LEU124      0.2287
    166  O          9.6230   15.1030   38.3890 O.2   124  LEU124     -0.2864
    167  CB        10.5960   17.1610   40.3200 C.3   124  LEU124      0.0297
    168  CG        11.0730   18.5330   40.7850 C.3   124  LEU124      0.0022
    169  CD1       12.3550   18.3840   41.5510 C.3   124  LEU124      0.0001
    170  CD2       11.2210   19.4580   39.5780 C.3   124  LEU124      0.0001
    171  N          9.1930   14.0520   35.4740 N.3   127  LYS127     -0.1231
    172  CA        10.1740   14.7680   34.6820 C.3   127  LYS127      0.1693
    173  C         11.6130   14.4050   35.0440 C.2   127  LYS127      0.2592
    174  O         12.5310   14.6900   34.2640 O.2   127  LYS127     -0.2718
    175  CB         9.9880   16.2360   34.8770 C.3   127  LYS127      0.0285
    176  CG         8.6100   16.6050   34.4270 C.3   127  LYS127      0.0035
    177  CD         8.3560   18.0690   34.6150 C.3   127  LYS127      0.0206
    178  CE         6.8630   18.2280   34.8960 C.3   127  LYS127      0.1093
    179  NZ         6.4850   17.5280   36.1220 N.3   127  LYS127     -0.1314
    180  N         11.8620   13.8170   36.2320 N.am  128  HIS128     -0.1976
    181  CA        13.2100   13.4790   36.6600 C.3   128  HIS128      0.1656
    182  C         13.1980   12.0410   37.1170 C.2   128  HIS128      0.2291
    183  O         12.2760   11.6740   37.8610 O.2   128  HIS128     -0.2864
    184  CB        13.6310   14.3800   37.8160 C.3   128  HIS128      0.0771
    185  CG        13.8850   15.8180   37.3710 C.ar  128  HIS128      0.0820
    186  ND1       15.0510   16.2970   36.9440 N.ar  128  HIS128     -0.2267
    187  CD2       12.9480   16.8290   37.2860 C.ar  128  HIS128      0.1154
    188  CE1       14.8610   17.5600   36.5970 C.ar  128  HIS128      0.1986
    189  NE2       13.5920   17.8660   36.8020 N.ar  128  HIS128     -0.2212
@<TRIPOS>BOND
     1    92    91    2
     2   128   126    1
     3    89    90    1
     4    93    94    1
     5    93    90    1
     6    94    95    1
     7    91    90    1
     8   126   123    1
     9   126   127    1
    10   116   115    2
    11   122   123    1
    12   123   124    1
    13    95    96    1
    14    96    97    2
    15   120   119    1
    16   120   121    2
    17   119   118    1
    18    97    98    1
    19    97    99    1
    20   115   118   am
    21   115   114    1
    22   117   114    1
    23   124   125    2
    24   114   113    1
    25    81    80    2
    26   113   107   am
    27    82    83    1
    28    82    84    1
    29    82    79    1
    30    80    79    1
    31    80    85   am
    32    86    85    1
    33    86    87    1
    34    79    78    1
    35   107   106    1
    36   107   108    2
    37   109   110    1
    38   109   106    1
    39    87    88    2
    40   112   110   am
    41   110   111    2
    42   106   105    1
    43    78    76   am
    44   174   173    2
    45    73    71   ar
    46   176   177    1
    47   176   175    1
    48    77    76    2
    49   177   178    1
    50   172   175    1
    51   172   173    1
    52   172   171    1
    53    72    71   ar
    54   178   179    1
    55    76    75    1
    56   105   102   am
    57   173   180   am
    58    71    70    1
    59   103   102    2
    60   137   135   am
    61   102   101    1
    62   180   181    1
    63    75    74    1
    64   188   189   ar
    65   188   186   ar
    66    70    67    1
    67   181   182    1
    68   181   184    1
    69   135   134    1
    70   135   136    2
    71   189   187   ar
    72   129   130    1
    73    74    68   am
    74   186   185   ar
    75    69    68    2
    76   182   183    2
    77    68    67    1
    78   134   133    1
    79   101   100    1
    80   101   104    1
    81   187   185   ar
    82   185   184    1
    83   133   130    1
    84    66    67    1
    85   132   131    2
    86   130   131    1
    87   166   165    2
    88   152   151    2
    89    65    63   am
    90   165   164    1
    91    10     9   ar
    92    10     8   ar
    93   170   168    1
    94   164   167    1
    95   164   163    1
    96     9     7   ar
    97   151   163   am
    98   151   150    1
    99     8     6   ar
   100    63    64    2
   101    63    62    1
   102   167   168    1
   103   146   144   ar
   104   146   148   ar
   105     7     6   ar
   106   168   169    1
   107    21    19    1
   108     6     5    1
   109   150   153    1
   110   150   149    1
   111    19    20    1
   112    19    18    2
   113   153   154    1
   114    18    17    1
   115   155   154   ar
   116   155   157   ar
   117   144   143   ar
   118    62    61    1
   119    17    16    1
   120   148   147   ar
   121     5     2    1
   122   154   156   ar
   123   157   158   ar
   124   138   139    1
   125   143   142    1
   126   143   145   ar
   127   147   145   ar
   128    16    15    1
   129    61    58    1
   130    15    12    1
   131   142   139    1
   132   156   158   ar
   133   156   159   ar
   134    48    47   ar
   135    48    46   ar
   136     2     3    1
   137     2     1    1
   138   158   160   ar
   139     4     3    2
   140    59    58    1
   141    59    60    2
   142     3    11   am
   143   139   140    1
   144    47    45   ar
   145    58    57    1
   146    11    12    1
   147    12    13    1
   148    46    44   ar
   149    55    56    1
   150    55    54    1
   151   141   140    2
   152   159   161   ar
   153    29    27    1
   154   160   162   ar
   155    45    43   ar
   156    54    53    1
   157    14    13    2
   158    44    43   ar
   159   161   162   ar
   160    27    26    1
   161    43    42    1
   162    53    50    1
   163    26    28    1
   164    26    23    1
   165    42    39    1
   166    51    50    1
   167    51    52    2
   168    50    49    1
   169    49    40   am
   170    22    23    1
   171    40    41    2
   172    40    39    1
   173    23    24    1
   174    39    38    1
   175    25    24    2
   176    38    32   am
   177    33    32    2
   178    32    31    1
   179    31    30    1
   180    31    34    1
   181    34    35    1
   182    35    37   ar
   183    35    36   ar
