@<TRIPOS>MOLECULE
tmp/1cz2A00.pdb
 176 166 0 0 0
SMALL
GASTEIGER

@<TRIPOS>ATOM
      1  N          5.0940   -4.0580   -6.6990 N.3     6  VAL6       -0.1245
      2  CA         4.1930   -3.3040   -5.8240 C.3     6  VAL6        0.1561
      3  C          3.5370   -2.2170   -6.6530 C.2     6  VAL6        0.2260
      4  O          2.3200   -2.1220   -6.6570 O.2     6  VAL6       -0.2867
      5  CB         4.9350   -2.6730   -4.6020 C.3     6  VAL6        0.0252
      6  CG1        4.0240   -1.6700   -3.8370 C.3     6  VAL6        0.0019
      7  CG2        5.4390   -3.7690   -3.6190 C.3     6  VAL6        0.0019
      8  N         -0.5210   -1.9960   -6.8650 N.3    10  VAL10      -0.1245
      9  CA        -1.3660   -0.9740   -6.2400 C.3    10  VAL10       0.1561
     10  C         -2.3450   -0.4020   -7.2440 C.2    10  VAL10       0.2260
     11  O         -3.4570   -0.0960   -6.8460 O.2    10  VAL10      -0.2867
     12  CB        -0.6000    0.1740   -5.5210 C.3    10  VAL10       0.0252
     13  CG1        0.2560   -0.3860   -4.3530 C.3    10  VAL10       0.0019
     14  CG2        0.2780    1.0110   -6.4860 C.3    10  VAL10       0.0019
     15  N         -5.8540   -1.0910   -6.7990 N.3    13  CYS13      -0.1221
     16  CA        -6.3060   -0.5300   -5.5260 C.3    13  CYS13       0.1808
     17  C         -6.5130    0.9700   -5.6370 C.2    13  CYS13       0.2601
     18  O         -7.4710    1.4660   -5.0640 O.2    13  CYS13      -0.2717
     19  CB        -5.2840   -0.8080   -4.3910 C.3    13  CYS13       0.0970
     20  SG        -4.7860   -2.5630   -4.3580 S.3    13  CYS13      -0.0800
     21  N         -5.6260    1.7070   -6.3530 N.am   14  LEU14      -0.1979
     22  CA        -5.7280    3.1710   -6.4020 C.3    14  LEU14       0.1596
     23  C         -7.1500    3.6630   -6.5810 C.2    14  LEU14       0.2287
     24  O         -7.4990    4.6480   -5.9510 O.2    14  LEU14      -0.2864
     25  CB        -4.8070    3.8510   -7.4630 C.3    14  LEU14       0.0297
     26  CG        -3.4160    4.2970   -6.9120 C.3    14  LEU14       0.0022
     27  CD1       -2.6360    3.1360   -6.2390 C.3    14  LEU14       0.0001
     28  CD2       -2.5510    4.8980   -8.0570 C.3    14  LEU14       0.0001
     29  N         -8.3810    3.8150   -3.1270 N.3    17  VAL17      -0.1245
     30  CA        -7.5370    4.6910   -2.3050 C.3    17  VAL17       0.1561
     31  C         -7.8900    6.1260   -2.6350 C.2    17  VAL17       0.2260
     32  O         -8.0450    6.9460   -1.7430 O.2    17  VAL17      -0.2867
     33  CB        -6.0100    4.4990   -2.5720 C.3    17  VAL17       0.0252
     34  CG1       -5.1040    5.4080   -1.6920 C.3    17  VAL17       0.0019
     35  CG2       -5.5370    3.0300   -2.3950 C.3    17  VAL17       0.0019
     36  N         -7.1920   -6.2210   -6.5850 N.3    27  CYS27      -0.1235
     37  CA        -6.5120   -5.5320   -5.4930 C.3    27  CYS27       0.1677
     38  C         -6.4160   -6.4570   -4.3010 C.2    27  CYS27       0.2270
     39  O         -5.3440   -6.5100   -3.7240 O.2    27  CYS27      -0.2867
     40  CB        -7.2360   -4.2350   -5.0590 C.3    27  CYS27       0.0956
     41  SG        -6.4200   -3.4990   -3.6000 S.3    27  CYS27      -0.0801
     42  N         -3.3780   -7.1880   -2.1570 N.3    31  VAL31      -0.1245
     43  CA        -3.1430   -6.9020   -0.7420 C.3    31  VAL31       0.1561
     44  C         -2.3050   -8.0080   -0.1360 C.2    31  VAL31       0.2260
     45  O         -1.2380   -7.7290    0.3920 O.2    31  VAL31      -0.2867
     46  CB        -4.4420   -6.7190    0.1030 C.3    31  VAL31       0.0252
     47  CG1       -4.0760   -6.4860    1.5970 C.3    31  VAL31       0.0019
     48  CG2       -5.3290   -5.5430   -0.3910 C.3    31  VAL31       0.0019
     49  N          1.1270   -7.6820   -1.3680 N.3    34  LEU34      -0.1231
     50  CA         1.9210   -6.6260   -0.7340 C.3    34  LEU34       0.1693
     51  C          2.3720   -7.1200    0.6230 C.2    34  LEU34       0.2592
     52  O          3.5630   -7.1120    0.8880 O.2    34  LEU34      -0.2718
     53  CB         1.1940   -5.2610   -0.5310 C.3    34  LEU34       0.0284
     54  CG         1.3690   -4.2600   -1.7120 C.3    34  LEU34       0.0019
     55  CD1        0.6070   -4.7050   -2.9880 C.3    34  LEU34       0.0001
     56  CD2        0.9000   -2.8420   -1.2840 C.3    34  LEU34       0.0001
     57  N          1.4380   -7.5590    1.4940 N.am   35  HIS35      -0.1976
     58  CA         1.8570   -8.0930    2.7920 C.3    35  HIS35       0.1656
     59  C          2.9800   -9.0930    2.6070 C.2    35  HIS35       0.2291
     60  O          3.9580   -9.0210    3.3340 O.2    35  HIS35      -0.2864
     61  CB         0.6660   -8.7520    3.5420 C.3    35  HIS35       0.0771
     62  CG         1.1390   -9.6430    4.6630 C.ar   35  HIS35       0.0820
     63  ND1        1.5710  -10.8610    4.5130 N.ar   35  HIS35      -0.2267
     64  CD2        1.2070   -9.3770    5.9710 C.ar   35  HIS35       0.1154
     65  CE1        1.9170  -11.3950    5.6470 C.ar   35  HIS35       0.1986
     66  NE2        1.6800  -10.4590    6.5190 N.ar   35  HIS35      -0.2212
     67  N          6.2810   -7.1680    1.2400 N.3    38  ALA38      -0.1245
     68  CA         6.8470   -6.2680    2.2450 C.3    38  ALA38       0.1562
     69  C          7.2060   -6.9920    3.5270 C.2    38  ALA38       0.2260
     70  O          6.5220   -6.8050    4.5200 O.2    38  ALA38      -0.2867
     71  CB         5.8480   -5.1190    2.5180 C.3    38  ALA38       0.0290
     72  N         10.6710   -3.3400    3.1840 N.3    44  ARG44      -0.1245
     73  CA         9.9800   -2.2250    3.8350 C.3    44  ARG44       0.1563
     74  C         10.5550   -0.9180    3.3330 C.2    44  ARG44       0.2260
     75  O          9.7920    0.0000    3.0700 O.2    44  ARG44      -0.2867
     76  CB        10.0520   -2.2710    5.3940 C.3    44  ARG44       0.0307
     77  CG         8.8300   -2.9870    6.0370 C.3    44  ARG44       0.0489
     78  CD         8.7010   -4.4900    5.6660 C.3    44  ARG44       0.2205
     79  NE         9.7400   -5.2670    6.3460 N.pl3  44  ARG44      -0.0865
     80  CZ         9.6840   -5.6480    7.6070 C.cat  44  ARG44       0.5346
     81  NH1        8.6900   -5.3560    8.4090 N.pl3  44  ARG44       0.1354
     82  NH2       10.6710   -6.3590    8.0950 N.pl3  44  ARG44       0.1354
     83  N          9.3660   -0.4940   -0.4830 N.3    47  ALA47      -0.1245
     84  CA         7.9340   -0.1970   -0.5430 C.3    47  ALA47       0.1562
     85  C          7.6790    1.1920    0.0050 C.2    47  ALA47       0.2260
     86  O          7.0060    1.9790   -0.6420 O.2    47  ALA47      -0.2867
     87  CB         7.0990   -1.2400    0.2470 C.3    47  ALA47       0.0290
     88  N          8.6930    3.6690   -2.5330 N.3    50  CYS50      -0.1221
     89  CA         7.7030    3.6240   -3.6140 C.3    50  CYS50       0.1808
     90  C          6.5010    4.4540   -3.2130 C.2    50  CYS50       0.2601
     91  O          6.0560    5.2950   -3.9770 O.2    50  CYS50      -0.2717
     92  CB         7.2440    2.1690   -3.9540 C.3    50  CYS50       0.0970
     93  SG         7.2570    1.8290   -5.7420 S.3    50  CYS50      -0.0800
     94  N          5.9790    4.2270   -1.9900 N.am   51  LEU51      -0.1979
     95  CA         4.8400    5.0130   -1.5160 C.3    51  LEU51       0.1596
     96  C          5.1760    6.4860   -1.4810 C.2    51  LEU51       0.2287
     97  O          4.4510    7.2760   -2.0670 O.2    51  LEU51      -0.2864
     98  CB         4.3820    4.4760   -0.1300 C.3    51  LEU51       0.0297
     99  CG         3.2480    5.2660    0.5920 C.3    51  LEU51       0.0022
    100  CD1        3.7030    6.6460    1.1400 C.3    51  LEU51       0.0001
    101  CD2        2.0000    5.4630   -0.3000 C.3    51  LEU51       0.0001
    102  N          4.8570    7.5830   -4.9780 N.3    54  ILE54      -0.1231
    103  CA         3.6230    7.4470   -5.7630 C.3    54  ILE54       0.1692
    104  C          2.4520    8.2040   -5.1640 C.2    54  ILE54       0.2591
    105  O          2.0660    9.2310   -5.7020 O.2    54  ILE54      -0.2718
    106  CB         3.2820    5.9410   -6.0140 C.3    54  ILE54       0.0266
    107  CG1        4.3990    5.2420   -6.8510 C.3    54  ILE54       0.0019
    108  CG2        1.8870    5.7830   -6.6910 C.3    54  ILE54       0.0020
    109  CD1        4.3740    3.6920   -6.7320 C.3    54  ILE54       0.0001
    110  N          1.8300    7.7170   -4.0660 N.am   55  ALA55      -0.1980
    111  CA         0.5630    8.3060   -3.6260 C.3    55  ALA55       0.1597
    112  C          0.7960    9.6800   -3.0560 C.2    55  ALA55       0.2287
    113  O          0.0270   10.5810   -3.3470 O.2    55  ALA55      -0.2864
    114  CB        -0.1510    7.4450   -2.5590 C.3    55  ALA55       0.0319
    115  N         -8.5370    4.4420    2.3930 N.3    66  ALA66      -0.1245
    116  CA        -7.7420    3.2280    2.1840 C.3    66  ALA66       0.1562
    117  C         -7.5800    2.4190    3.4490 C.2    66  ALA66       0.2260
    118  O         -7.5230    1.2030    3.3570 O.2    66  ALA66      -0.2867
    119  CB        -6.3230    3.5420    1.6550 C.3    66  ALA66       0.0290
    120  N         -9.3060   -0.8590    3.5220 N.3    69  ILE69      -0.1231
    121  CA        -9.0490   -1.9870    2.6240 C.3    69  ILE69       0.1678
    122  C         -8.7200   -3.2470    3.4140 C.2    69  ILE69       0.2434
    123  O         -9.4780   -4.1950    3.2780 O.2    69  ILE69      -0.2733
    124  CB        -8.0390   -1.6690    1.4730 C.3    69  ILE69       0.0265
    125  CG1       -8.6000   -0.5780    0.5090 C.3    69  ILE69       0.0019
    126  CG2       -7.7080   -2.9800    0.7000 C.3    69  ILE69       0.0020
    127  CD1       -7.5220    0.0470   -0.4210 C.3    69  ILE69       0.0001
    128  N         -7.6440   -3.3780    4.2340 N.am   70  PRO70      -0.2729
    129  CA        -7.4240   -4.6350    4.9330 C.3    70  PRO70       0.1401
    130  C         -8.6100   -5.1810    5.7150 C.2    70  PRO70       0.2269
    131  O         -8.9510   -6.3240    5.4430 O.2    70  PRO70      -0.2865
    132  CB        -6.1340   -4.3410    5.7470 C.3    70  PRO70       0.0296
    133  CG        -5.8680   -2.8150    5.6280 C.3    70  PRO70       0.0237
    134  CD        -6.5990   -2.3730    4.3390 C.3    70  PRO70       0.0939
    135  N         -1.5200   -5.7940    7.3440 N.3    77  LEU77      -0.1231
    136  CA        -0.1980   -5.4090    6.8280 C.3    77  LEU77       0.1678
    137  C          0.7630   -5.2410    7.9930 C.2    77  LEU77       0.2434
    138  O          0.2550   -5.0150    9.0800 O.2    77  LEU77      -0.2733
    139  CB        -0.3140   -4.0110    6.1490 C.3    77  LEU77       0.0284
    140  CG        -0.9980   -3.9790    4.7500 C.3    77  LEU77       0.0019
    141  CD1       -2.3410   -4.7530    4.7220 C.3    77  LEU77       0.0001
    142  CD2       -1.2420   -2.4990    4.3370 C.3    77  LEU77       0.0001
    143  N          2.1170   -5.2960    7.8700 N.am   78  PRO78      -0.2718
    144  CA         2.9570   -4.9640    9.0170 C.3    78  PRO78       0.1535
    145  C          2.7460   -3.5200    9.4390 C.2    78  PRO78       0.2599
    146  O          2.8530   -3.2450   10.6230 O.2    78  PRO78      -0.2715
    147  CB         4.3680   -5.2700    8.4530 C.3    78  PRO78       0.0310
    148  CG         4.2090   -5.1100    6.9270 C.3    78  PRO78       0.0237
    149  CD         2.7940   -5.6680    6.6320 C.3    78  PRO78       0.0939
    150  N          2.4190   -2.5900    8.5100 N.am   79  TYR79      -0.1960
    151  CA         2.0000   -1.2400    8.9010 C.3    79  TYR79       0.1771
    152  C          1.0150   -0.7230    7.8770 C.2    79  TYR79       0.2620
    153  O          1.0070   -1.2480    6.7760 O.2    79  TYR79      -0.2715
    154  CB         3.1880   -0.2560    9.0370 C.3    79  TYR79       0.0574
    155  CG         3.8160   -0.0080    7.6620 C.ar   79  TYR79      -0.0198
    156  CD1        4.6790   -0.9700    7.1300 C.ar   79  TYR79      -0.0009
    157  CD2        3.5450    1.1540    6.9300 C.ar   79  TYR79      -0.0009
    158  CE1        5.2390   -0.7820    5.8650 C.ar   79  TYR79       0.0417
    159  CE2        4.1700    1.3730    5.6990 C.ar   79  TYR79       0.0417
    160  CZ         5.0360    0.4140    5.1690 C.ar   79  TYR79       0.1957
    161  OH         5.6910    0.6730    3.9640 O.3    79  TYR79      -0.2866
    162  N          0.1700    0.2810    8.1940 N.am   80  THR80      -0.1937
    163  CA        -0.8940    0.6430    7.2590 C.3    80  THR80       0.2028
    164  C         -0.3330    1.3930    6.0710 C.2    80  THR80       0.2642
    165  O         -0.2140    0.7960    5.0130 O.2    80  THR80      -0.2714
    166  CB        -2.0160    1.4480    7.9700 C.3    80  THR80       0.1808
    167  OG1       -1.3930    2.5770    8.6030 O.3    80  THR80      -0.2208
    168  CG2       -2.7400    0.5700    9.0280 C.3    80  THR80       0.0379
    169  N          0.0110    2.6950    6.2060 N.am   81  ILE81      -0.1977
    170  CA         0.4520    3.4620    5.0350 C.3    81  ILE81       0.1596
    171  C          1.1540    4.7440    5.4430 C.2    81  ILE81       0.2287
    172  O          0.7350    5.3360    6.4240 O.2    81  ILE81      -0.2864
    173  CB        -0.7680    3.7260    4.0970 C.3    81  ILE81       0.0276
    174  CG1       -0.3270    4.4090    2.7690 C.3    81  ILE81       0.0022
    175  CG2       -1.8710    4.5360    4.8370 C.3    81  ILE81       0.0022
    176  CD1       -1.4040    4.3320    1.6530 C.3    81  ILE81       0.0001
@<TRIPOS>BOND
     1    28    26    1
     2    25    26    1
     3    25    22    1
     4    10    11    2
     5    10     9    1
     6    26    27    1
     7     8     9    1
     8   107   109    1
     9   107   106    1
    10    15    16    1
    11     1     2    1
    12   108   106    1
    13     4     3    2
    14     3     2    1
    15    36    37    1
    16    23    22    1
    17    23    24    2
    18    14    12    1
    19    22    21    1
    20    21    17   am
    21     9    12    1
    22   106   103    1
    23     2     5    1
    24   103   104    1
    25   103   102    1
    26    93    92    1
    27   105   104    2
    28    17    16    1
    29    17    18    2
    30    16    19    1
    31    12    13    1
    32    37    40    1
    33    37    38    1
    34   104   110   am
    35    40    41    1
    36     5     6    1
    37     5     7    1
    38    19    20    1
    39    20    41    1
    40    38    39    2
    41   110   111    1
    42    91    90    2
    43    92    89    1
    44   111   112    1
    45   111   114    1
    46    89    90    1
    47    89    88    1
    48   113   112    2
    49    90    94   am
    50    29    30    1
    51    55    54    1
    52    31    30    1
    53    31    32    2
    54    33    35    1
    55    33    30    1
    56    33    34    1
    57    42    43    1
    58    97    96    2
    59    94    95    1
    60    54    56    1
    61    54    53    1
    62    95    96    1
    63    95    98    1
    64    49    50    1
    65    43    44    1
    66    43    46    1
    67    50    53    1
    68    50    51    1
    69    86    85    2
    70    84    83    1
    71    84    85    1
    72    84    87    1
    73   127   125    1
    74    48    46    1
    75   101    99    1
    76    44    45    2
    77    98    99    1
    78    46    47    1
    79   125   124    1
    80    99   100    1
    81    51    52    2
    82    51    57   am
    83   126   124    1
    84    67    68    1
    85   124   121    1
    86    57    58    1
    87   176   174    1
    88   119   116    1
    89   116   115    1
    90   116   117    1
    91    68    71    1
    92    68    69    1
    93    59    58    1
    94    59    60    2
    95   121   122    1
    96   121   120    1
    97   174   173    1
    98    58    61    1
    99    75    74    2
   100    72    73    1
   101   123   122    2
   102    74    73    1
   103   118   117    2
   104   122   128   am
   105    69    70    2
   106    61    62    1
   107    73    76    1
   108   161   160    1
   109   173   175    1
   110   173   170    1
   111   128   134    1
   112   128   129    1
   113   142   140    1
   114   134   133    1
   115    63    62   ar
   116    63    65   ar
   117    62    64   ar
   118   141   140    1
   119   140   139    1
   120   129   130    1
   121   129   132    1
   122   165   164    2
   123   170   171    1
   124   170   169    1
   125   160   159   ar
   126   160   158   ar
   127    76    77    1
   128   131   130    2
   129   171   172    2
   130   133   132    1
   131    65    66   ar
   132    78    77    1
   133    78    79    1
   134   159   157   ar
   135   158   156   ar
   136    64    66   ar
   137   164   169   am
   138   164   163    1
   139   139   136    1
   140    79    80    2
   141   149   148    1
   142   149   143    1
   143   153   152    2
   144   136   135    1
   145   136   137    1
   146   148   147    1
   147   157   155   ar
   148   156   155   ar
   149   163   166    1
   150   163   162    1
   151    80    82    1
   152    80    81    1
   153   155   154    1
   154   143   137   am
   155   143   144    1
   156   152   162   am
   157   152   151    1
   158   166   167    1
   159   166   168    1
   160   137   138    2
   161   147   144    1
   162   150   151    1
   163   150   145   am
   164   151   154    1
   165   144   145    1
   166   145   146    2
