@<TRIPOS>MOLECULE
tmp/1cz7D00.pdb
 133 127 0 0 0
SMALL
GASTEIGER

@<TRIPOS>ATOM
      1  N         10.5520   86.7680  180.2100 N.3    59  ARG59      -0.1231
      2  CA        11.1840   85.4810  180.4290 C.3    59  ARG59       0.1694
      3  C         10.6380   84.8130  181.6720 C.2    59  ARG59       0.2592
      4  O         10.6460   85.3750  182.7720 O.2    59  ARG59      -0.2718
      5  CB        12.6690   85.5870  180.5350 C.3    59  ARG59       0.0321
      6  CG        13.2480   84.2290  180.5680 C.3    59  ARG59       0.0489
      7  CD        14.7760   84.3300  180.6400 C.3    59  ARG59       0.2205
      8  NE        15.4740   83.1640  180.1170 N.pl3  59  ARG59      -0.0865
      9  CZ        16.7720   82.9470  180.2870 C.cat  59  ARG59       0.5346
     10  NH1       17.4670   83.8220  180.9890 N.pl3  59  ARG59       0.1354
     11  NH2       17.4010   81.9170  179.6990 N.pl3  59  ARG59       0.1354
     12  N         10.1220   83.6120  181.4540 N.am   60  ILE60      -0.1966
     13  CA         9.5040   82.8180  182.4910 C.3    60  ILE60       0.1727
     14  C         10.5210   81.7840  182.8250 C.2    60  ILE60       0.2616
     15  O         11.1910   81.2390  181.9460 O.2    60  ILE60      -0.2715
     16  CB         8.2100   82.1630  181.9690 C.3    60  ILE60       0.0290
     17  CG1        7.0150   83.0930  182.2250 C.3    60  ILE60       0.0022
     18  CG2        8.0060   80.8380  182.6270 C.3    60  ILE60       0.0023
     19  CD1        5.6800   82.7030  181.5650 C.3    60  ILE60       0.0001
     20  N         10.6450   81.5100  184.1090 N.am   61  ARG61      -0.1964
     21  CA        11.6320   80.5510  184.5460 C.3    61  ARG61       0.1714
     22  C         11.1180   79.1760  184.9730 C.2    61  ARG61       0.2458
     23  O         10.0900   79.0610  185.6860 O.2    61  ARG61      -0.2730
     24  CB        12.3670   81.1560  185.7190 C.3    61  ARG61       0.0347
     25  CG        11.3690   81.7680  186.7160 C.3    61  ARG61       0.0492
     26  CD        11.8990   81.8080  188.1530 C.3    61  ARG61       0.2205
     27  NE        12.5680   80.5690  188.5360 N.pl3  61  ARG61      -0.0865
     28  CZ        12.8700   80.2530  189.7840 C.cat  61  ARG61       0.5346
     29  NH1       12.5580   81.0850  190.7760 N.pl3  61  ARG61       0.1354
     30  NH2       13.4960   79.1120  190.0320 N.pl3  61  ARG61       0.1354
     31  N         11.8370   78.1070  184.5570 N.am   62  PRO62      -0.2727
     32  CA        11.4040   76.7650  184.9590 C.3    62  PRO62       0.1402
     33  C         11.6250   76.6780  186.4750 C.2    62  PRO62       0.2269
     34  O         12.5260   77.3340  187.0000 O.2    62  PRO62      -0.2865
     35  CB        12.3570   75.8420  184.1930 C.3    62  PRO62       0.0296
     36  CG        13.5640   76.6360  184.0420 C.3    62  PRO62       0.0237
     37  CD        13.0420   78.0370  183.7170 C.3    62  PRO62       0.0939
     38  N         12.6870   74.9850  190.2040 N.3    64  LEU64      -0.1245
     39  CA        13.8690   74.2540  190.6320 C.3    64  LEU64       0.1561
     40  C         13.7000   72.9230  191.3980 C.2    64  LEU64       0.2260
     41  O         12.6450   72.6040  191.9330 O.2    64  LEU64      -0.2867
     42  CB        14.7260   75.1880  191.4570 C.3    64  LEU64       0.0270
     43  CG        15.2880   76.4090  190.7390 C.3    64  LEU64       0.0019
     44  CD1       16.0000   77.2360  191.7740 C.3    64  LEU64       0.0001
     45  CD2       16.2580   76.0120  189.6170 C.3    64  LEU64       0.0001
     46  N         13.6150   78.1740  176.8620 N.3   111  SER111     -0.1217
     47  CA        14.3610   79.1630  176.0680 C.3   111  SER111      0.1889
     48  C         15.7650   79.3230  176.5810 C.2   111  SER111      0.2288
     49  O         15.9260   79.7620  177.7180 O.2   111  SER111     -0.2866
     50  CB        13.6580   80.5130  176.1240 C.3   111  SER111      0.2089
     51  OG        12.2500   80.3670  176.1360 O.3   111  SER111     -0.2183
     52  N         12.4490   89.1450  193.2890 N.3   141  THR141     -0.1203
     53  CA        13.6170   88.3340  193.5660 C.3   141  THR141      0.1994
     54  C         13.2970   86.9100  193.1180 C.2   141  THR141      0.2618
     55  O         12.1370   86.5810  192.9250 O.2   141  THR141     -0.2717
     56  CB        14.0010   88.3870  195.0690 C.3   141  THR141      0.1784
     57  OG1       14.0520   89.7490  195.5230 O.3   141  THR141     -0.2211
     58  CG2       15.3910   87.7680  195.2740 C.3   141  THR141      0.0376
     59  N         14.3050   86.0710  192.9170 N.am  142  GLY142     -0.1942
     60  CA        14.0420   84.7170  192.4740 C.3   142  GLY142      0.2014
     61  C         13.6780   84.5470  190.9950 C.2   142  GLY142      0.2640
     62  O         13.9600   83.4740  190.4200 O.2   142  GLY142     -0.2714
     63  N         13.0830   85.5770  190.3630 N.am  143  SER143     -0.1935
     64  CA        12.7070   85.4600  188.9580 C.3   143  SER143      0.2058
     65  C         13.8030   84.9880  188.0390 C.2   143  SER143      0.2683
     66  O         13.7020   83.9360  187.5050 O.2   143  SER143     -0.2710
     67  CB        12.1180   86.7520  188.4390 C.3   143  SER143      0.2130
     68  OG        12.6090   87.8610  189.1630 O.3   143  SER143     -0.2179
     69  N         14.8740   85.7350  187.8380 N.am  144  GLY144     -0.1715
     70  CA        15.9150   85.2260  186.9370 C.2   144  GLY144      0.1480
     71  C         16.9190   86.2570  186.4060 C.2   144  GLY144      0.2820
     72  O         17.8380   85.9180  185.6210 O.2   144  GLY144     -0.2669
     73  N         16.7260   87.5100  186.8250 N.am  145  LYS145     -0.1929
     74  CA        17.6200   88.6270  186.4640 C.3   145  LYS145      0.1731
     75  C         19.1150   88.2980  186.4210 C.2   145  LYS145      0.2617
     76  O         19.7690   88.4010  185.3900 O.2   145  LYS145     -0.2715
     77  CB        17.4270   89.7720  187.4390 C.3   145  LYS145      0.0312
     78  CG        16.0850   90.3650  187.3680 C.3   145  LYS145      0.0038
     79  CD        15.8740   91.2060  188.5700 C.3   145  LYS145      0.0206
     80  CE        15.6760   90.3370  189.7290 C.3   145  LYS145      0.1093
     81  NZ        14.5760   90.8850  190.5240 N.3   145  LYS145     -0.1314
     82  N         19.6530   87.9150  187.5620 N.am  146  THR146     -0.1937
     83  CA        21.0530   87.5820  187.6360 C.3   146  THR146      0.2028
     84  C         21.3910   86.4640  186.6670 C.2   146  THR146      0.2642
     85  O         22.4030   86.5320  185.9970 O.2   146  THR146     -0.2714
     86  CB        21.4690   87.1660  189.0750 C.3   146  THR146      0.1808
     87  OG1       21.0000   88.1300  190.0490 O.3   146  THR146     -0.2208
     88  CG2       23.0040   86.9820  189.1120 C.3   146  THR146      0.0379
     89  N         20.5480   85.4270  186.5980 N.am  147  TYR147     -0.1973
     90  CA        20.7720   84.2910  185.6800 C.3   147  TYR147      0.1639
     91  C         20.8590   84.7950  184.2450 C.2   147  TYR147      0.2290
     92  O         21.7210   84.3550  183.4660 O.2   147  TYR147     -0.2864
     93  CB        19.6220   83.2660  185.7390 C.3   147  TYR147      0.0560
     94  CG        19.9360   82.0000  184.9560 C.ar  147  TYR147     -0.0198
     95  CD1       20.9920   81.1720  185.3460 C.ar  147  TYR147     -0.0009
     96  CD2       19.3330   81.7360  183.7330 C.ar  147  TYR147     -0.0009
     97  CE1       21.4640   80.1440  184.5370 C.ar  147  TYR147      0.0417
     98  CE2       19.8050   80.6940  182.9080 C.ar  147  TYR147      0.0417
     99  CZ        20.8860   79.9180  183.3260 C.ar  147  TYR147      0.1957
    100  OH        21.4880   78.9870  182.5200 O.3   147  TYR147     -0.2866
    101  N         25.7240   81.5610  184.3970 N.3   152  VAL152     -0.1245
    102  CA        26.5490   80.6700  185.1850 C.3   152  VAL152      0.1561
    103  C         27.5510   80.0810  184.2380 C.2   152  VAL152      0.2260
    104  O         27.2760   79.9450  183.0690 O.2   152  VAL152     -0.2867
    105  CB        25.7190   79.5320  185.7900 C.3   152  VAL152      0.0252
    106  CG1       24.6360   80.1030  186.7260 C.3   152  VAL152      0.0019
    107  CG2       25.0910   78.7090  184.6680 C.3   152  VAL152      0.0019
    108  N         20.0150   91.5330  196.9490 N.3   256  SER256     -0.1217
    109  CA        18.6950   91.5130  196.3540 C.3   256  SER256      0.1889
    110  C         17.9190   92.8230  196.4930 C.2   256  SER256      0.2288
    111  O         16.7210   92.8730  196.2120 O.2   256  SER256     -0.2866
    112  CB        17.8740   90.3630  196.9460 C.3   256  SER256      0.2089
    113  OG        17.0200   90.8340  197.9760 O.3   256  SER256     -0.2183
    114  N         21.5600   94.8740  186.1890 N.3   285  ASP285     -0.1225
    115  CA        20.8800   93.7400  186.8180 C.3   285  ASP285      0.1805
    116  C         20.1320   94.3560  188.0000 C.2   285  ASP285      0.2597
    117  O         20.6340   94.3300  189.0940 O.2   285  ASP285     -0.2718
    118  CB        21.9040   92.7240  187.3170 C.3   285  ASP285      0.1424
    119  CG        21.3340   91.7410  188.3600 C.2   285  ASP285      0.3668
    120  OD1       20.2710   91.9980  188.9630 O.co2 285  ASP285     -0.2456
    121  OD2       21.9750   90.6930  188.6050 O.co2 285  ASP285     -0.2456
    122  N         18.9430   94.9060  187.7630 N.am  286  LEU286     -0.1979
    123  CA        18.1200   95.5770  188.7830 C.3   286  LEU286      0.1596
    124  C         17.8270   94.8740  190.1120 C.2   286  LEU286      0.2287
    125  O         18.0330   93.6780  190.3100 O.2   286  LEU286     -0.2864
    126  CB        16.7710   95.9880  188.1760 C.3   286  LEU286      0.0297
    127  CG        16.6970   97.0510  187.0930 C.3   286  LEU286      0.0022
    128  CD1       15.2810   97.1920  186.5970 C.3   286  LEU286      0.0001
    129  CD2       17.2030   98.3620  187.6560 C.3   286  LEU286      0.0001
    130  N         15.3300   93.5470  193.2010 N.3   288  GLY288     -0.1225
    131  CA        14.0370   92.8820  193.2960 C.3   288  GLY288      0.1811
    132  C         12.8970   93.8630  193.1340 C.2   288  GLY288      0.2280
    133  O         12.9420   94.9830  193.6620 O.2   288  GLY288     -0.2866
@<TRIPOS>BOND
     1    47    50    1
     2    47    48    1
     3    47    46    1
     4    50    51    1
     5    48    49    2
     6    11     9    1
     7     8     9    2
     8     8     7    1
     9     1     2    1
    10     9    10    1
    11     2     5    1
    12     2     3    1
    13     5     6    1
    14     6     7    1
    15    12     3   am
    16    12    13    1
    17    19    17    1
    18     3     4    2
    19    15    14    2
    20    16    17    1
    21    16    13    1
    22    16    18    1
    23    13    14    1
    24   100    99    1
    25    14    20   am
    26    98    99   ar
    27    98    96   ar
    28   104   103    2
    29    99    97   ar
    30    92    91    2
    31    37    36    1
    32    37    31    1
    33    96    94   ar
    34    36    35    1
    35    20    21    1
    36    35    32    1
    37   103   102    1
    38    91    90    1
    39   101   102    1
    40    97    95   ar
    41    21    22    1
    42    21    24    1
    43    31    32    1
    44    31    22   am
    45   107   105    1
    46    94    95   ar
    47    94    93    1
    48    32    33    1
    49    22    23    2
    50   102   105    1
    51    76    75    2
    52    72    71    2
    53    90    93    1
    54    90    89    1
    55    24    25    1
    56   105   106    1
    57    85    84    2
    58   114   115    1
    59    71    73   am
    60    71    70    1
    61    75    74    1
    62    75    82   am
    63    74    73    1
    64    74    77    1
    65    33    34    2
    66   128   127    1
    67    89    84   am
    68    84    83    1
    69    25    26    1
    70   115   118    1
    71   115   116    1
    72    70    69    2
    73   127   129    1
    74   127   126    1
    75   118   119    1
    76    78    77    1
    77    78    79    1
    78    66    65    2
    79    82    83    1
    80    83    86    1
    81   122   116   am
    82   122   123    1
    83    69    65    1
    84   116   117    2
    85    65    64    1
    86    26    27    1
    87   126   123    1
    88   119   121   ar
    89   119   120   ar
    90    67    64    1
    91    67    68    1
    92    27    28    2
    93    79    80    1
    94   123   124    1
    95    64    63    1
    96    86    88    1
    97    86    87    1
    98    45    43    1
    99    80    81    1
   100    28    30    1
   101    28    29    1
   102   124   125    2
   103    38    39    1
   104    63    61   am
   105    62    61    2
   106    39    40    1
   107    39    42    1
   108    43    42    1
   109    43    44    1
   110    61    60    1
   111    40    41    2
   112    60    59    1
   113    59    54   am
   114    55    54    2
   115    54    53    1
   116   132   131    1
   117   132   133    2
   118   130   131    1
   119    52    53    1
   120    53    56    1
   121    56    58    1
   122    56    57    1
   123   111   110    2
   124   109   110    1
   125   109   112    1
   126   109   108    1
   127   112   113    1
