@<TRIPOS>MOLECULE
tmp/1cziA00.pdb
 228 215 0 0 0
SMALL
GASTEIGER

@<TRIPOS>ATOM
      1  N         91.4400   11.6830   45.0280 N.3    11  TYR11      -0.1241
      2  CA        90.6410   10.5310   44.6460 C.3    11  TYR11       0.1605
      3  C         91.2570    9.8600   43.4210 C.2    11  TYR11       0.2264
      4  O         91.3400   10.4760   42.3530 O.2    11  TYR11      -0.2867
      5  CB        89.1680   10.8920   44.3880 C.3    11  TYR11       0.0534
      6  CG        88.3020    9.6490   44.2560 C.ar   11  TYR11      -0.0201
      7  CD1       88.2570    8.7260   45.2990 C.ar   11  TYR11      -0.0009
      8  CD2       87.5510    9.3880   43.1120 C.ar   11  TYR11      -0.0009
      9  CE1       87.4820    7.5800   45.2000 C.ar   11  TYR11       0.0417
     10  CE2       86.7720    8.2430   43.0180 C.ar   11  TYR11       0.0417
     11  CZ        86.7390    7.3390   44.0600 C.ar   11  TYR11       0.1957
     12  OH        85.9680    6.1940   43.9750 O.3    11  TYR11      -0.2866
     13  N         92.9130   11.0820   40.1760 N.3    14  SER14      -0.1202
     14  CA        92.3320   11.6720   38.9720 C.3    14  SER14       0.2020
     15  C         91.6550   12.9980   39.2980 C.2    14  SER14       0.2618
     16  O         91.5080   13.8100   38.3970 O.2    14  SER14      -0.2717
     17  CB        91.2680   10.8100   38.2920 C.3    14  SER14       0.2103
     18  OG        90.9560   11.4640   37.0530 O.3    14  SER14      -0.2182
     19  N         91.3030   13.1390   40.5700 N.am   15  GLN15      -0.1979
     20  CA        90.7100   14.3660   41.0670 C.3    15  GLN15       0.1601
     21  C         91.3870   14.8070   42.3590 C.2    15  GLN15       0.2287
     22  O         91.5690   14.0530   43.3060 O.2    15  GLN15      -0.2864
     23  CB        89.2120   14.2430   41.3080 C.3    15  GLN15       0.0394
     24  CG        88.4600   13.3120   40.3710 C.3    15  GLN15       0.0908
     25  CD        87.1550   12.8800   41.0170 C.2    15  GLN15       0.2608
     26  OE1       86.7930   13.4320   42.0650 O.2    15  GLN15      -0.2717
     27  NE2       86.4700   11.9290   40.3970 N.am   15  GLN15      -0.0878
     28  N         87.4800   21.3270   43.1040 N.3    32  LEU32      -0.1245
     29  CA        88.7410   21.0820   42.4140 C.3    32  LEU32       0.1561
     30  C         89.3790   22.4120   41.9950 C.2    32  LEU32       0.2260
     31  O         88.8430   23.2120   41.2390 O.2    32  LEU32      -0.2867
     32  CB        88.4280   20.3150   41.1240 C.3    32  LEU32       0.0270
     33  CG        89.6820   19.9460   40.3500 C.3    32  LEU32       0.0019
     34  CD1       89.9820   18.4750   40.5350 C.3    32  LEU32       0.0001
     35  CD2       89.6290   20.3940   38.9110 C.3    32  LEU32       0.0001
     36  N         91.4130   24.2240   39.5980 N.3    34  ASP34      -0.1239
     37  CA        91.7020   23.8580   38.2110 C.3    34  ASP34       0.1674
     38  C         92.4940   24.9920   37.5600 C.2    34  ASP34       0.2266
     39  O         91.9660   26.0860   37.4280 O.2    34  ASP34      -0.2867
     40  CB        90.4090   23.7600   37.4040 C.3    34  ASP34       0.1410
     41  CG        90.6560   23.3340   35.9720 C.2    34  ASP34       0.3668
     42  OD1       91.7810   22.8820   35.6750 O.co2  34  ASP34      -0.2456
     43  OD2       89.7230   23.4680   35.1540 O.co2  34  ASP34      -0.2456
     44  N         93.3390   24.9890   34.5390 N.3    36  GLY36      -0.1225
     45  CA        92.9390   24.9780   33.1470 C.3    36  GLY36       0.1811
     46  C         91.6500   25.6860   32.8210 C.2    36  GLY36       0.2280
     47  O         91.0980   25.5640   31.7340 O.2    36  GLY36      -0.2866
     48  N         84.1500   22.4620   29.6080 N.3    77  TYR77      -0.1227
     49  CA        85.5080   21.9250   29.6930 C.3    77  TYR77       0.1736
     50  C         85.7250   20.9100   28.5760 C.2    77  TYR77       0.2596
     51  O         84.8880   20.8920   27.6710 O.2    77  TYR77      -0.2718
     52  CB        85.5960   21.2140   31.0460 C.3    77  TYR77       0.0548
     53  CG        85.3350   22.1930   32.1660 C.ar   77  TYR77      -0.0200
     54  CD1       86.3710   23.0060   32.6420 C.ar   77  TYR77      -0.0009
     55  CD2       84.0780   22.2770   32.7240 C.ar   77  TYR77      -0.0009
     56  CE1       86.0690   23.8860   33.6700 C.ar   77  TYR77       0.0417
     57  CE2       83.7970   23.1530   33.7480 C.ar   77  TYR77       0.0417
     58  CZ        84.8080   23.9570   34.2190 C.ar   77  TYR77       0.1957
     59  OH        84.5330   24.8420   35.2500 O.3    77  TYR77      -0.2866
     60  N         86.8140   20.1440   28.6370 N.am   78  GLY78      -0.1942
     61  CA        86.9480   19.0620   27.6510 C.3    78  GLY78       0.2014
     62  C         86.1830   17.8570   28.1750 C.2    78  GLY78       0.2639
     63  O         85.8870   16.8630   27.5370 O.2    78  GLY78      -0.2714
     64  N         85.8570   17.9970   29.4590 N.am   79  THR79      -0.1950
     65  CA        85.1800   16.9400   30.1970 C.3    79  THR79       0.1897
     66  C         84.3010   17.6480   31.2260 C.2    79  THR79       0.2313
     67  O         84.7950   17.8760   32.3270 O.2    79  THR79      -0.2863
     68  CB        86.2320   16.1160   30.9890 C.3    79  THR79       0.1794
     69  OG1       86.4920   14.9040   30.2590 O.3    79  THR79      -0.2208
     70  CG2       85.7160   15.8030   32.3700 C.3    79  THR79       0.0378
     71  N         77.2490   13.2590   33.3020 N.3   112  ASP112     -0.1225
     72  CA        77.5460   12.5190   34.5220 C.3   112  ASP112      0.1805
     73  C         78.9700   12.8090   34.9790 C.2   112  ASP112      0.2598
     74  O         79.4130   12.0960   35.8730 O.2   112  ASP112     -0.2718
     75  CB        77.4310   10.9930   34.2960 C.3   112  ASP112      0.1424
     76  CG        75.9910   10.5510   34.5220 C.2   112  ASP112      0.3668
     77  OD1       75.1330   10.7950   33.6490 O.co2 112  ASP112     -0.2456
     78  OD2       75.7080    9.9800   35.5910 O.co2 112  ASP112     -0.2456
     79  N         79.6350   13.7920   34.3910 N.am  113  VAL113     -0.1966
     80  CA        81.0220   14.0930   34.6990 C.3   113  VAL113      0.1727
     81  C         81.1410   14.5840   36.1350 C.2   113  VAL113      0.2616
     82  O         81.9570   14.1380   36.9390 O.2   113  VAL113     -0.2715
     83  CB        81.7240   15.1020   33.8180 C.3   113  VAL113      0.0290
     84  CG1       83.1470   15.4120   34.2290 C.3   113  VAL113      0.0023
     85  CG2       81.5230   14.9770   32.3420 C.3   113  VAL113      0.0023
     86  N         80.2900   15.5500   36.4820 N.am  114  PHE114     -0.1974
     87  CA        80.3380   16.0140   37.8650 C.3   114  PHE114      0.1639
     88  C         79.5730   15.1170   38.8150 C.2   114  PHE114      0.2290
     89  O         79.8940   15.1580   40.0000 O.2   114  PHE114     -0.2864
     90  CB        79.7610   17.4300   37.9220 C.3   114  PHE114      0.0560
     91  CG        80.4740   18.3610   36.9850 C.ar  114  PHE114     -0.0200
     92  CD1       81.7420   18.8080   37.3170 C.ar  114  PHE114     -0.0042
     93  CD2       79.8980   18.7710   35.7980 C.ar  114  PHE114     -0.0042
     94  CE1       82.4200   19.6590   36.4720 C.ar  114  PHE114     -0.0003
     95  CE2       80.5770   19.6340   34.9610 C.ar  114  PHE114     -0.0003
     96  CZ        81.8420   20.0800   35.2970 C.ar  114  PHE114     -0.0000
     97  N         79.4850   11.9540   39.4330 N.3   116  TYR116     -0.1227
     98  CA        80.1960   10.8990   40.1630 C.3   116  TYR116      0.1736
     99  C         81.5400   11.4400   40.6360 C.2   116  TYR116      0.2595
    100  O         82.3780   10.7750   41.2210 O.2   116  TYR116     -0.2718
    101  CB        80.3050    9.6520   39.3000 C.3   116  TYR116      0.0548
    102  CG        78.9720    8.9550   39.0910 C.ar  116  TYR116     -0.0200
    103  CD1       78.1600    8.7060   40.2040 C.ar  116  TYR116     -0.0009
    104  CD2       78.5310    8.5580   37.8320 C.ar  116  TYR116     -0.0009
    105  CE1       76.9450    8.0660   40.0560 C.ar  116  TYR116      0.0417
    106  CE2       77.3070    7.9170   37.6870 C.ar  116  TYR116      0.0417
    107  CZ        76.5270    7.6740   38.7980 C.ar  116  TYR116      0.1957
    108  OH        75.3100    7.0440   38.6830 O.3   116  TYR116     -0.2866
    109  N         81.6940   12.7410   40.4060 N.am  117  ALA117     -0.1980
    110  CA        82.7900   13.5170   40.9230 C.3   117  ALA117      0.1597
    111  C         82.7520   13.5990   42.4360 C.2   117  ALA117      0.2287
    112  O         81.6720   13.6340   42.9920 O.2   117  ALA117     -0.2864
    113  CB        82.9320   14.8860   40.3080 C.3   117  ALA117      0.0319
    114  N         83.9610   16.1110   44.1240 N.3   119  PHE119     -0.1241
    115  CA        83.9130   17.4910   44.6510 C.3   119  PHE119      0.1605
    116  C         82.6580   18.1370   44.0540 C.2   119  PHE119      0.2264
    117  O         82.0230   17.6160   43.1370 O.2   119  PHE119     -0.2867
    118  CB        85.1430   18.2340   44.0720 C.3   119  PHE119      0.0534
    119  CG        85.2780   17.9490   42.5960 C.ar  119  PHE119     -0.0203
    120  CD1       84.5440   18.6460   41.6640 C.ar  119  PHE119     -0.0042
    121  CD2       86.1480   16.9830   42.1670 C.ar  119  PHE119     -0.0042
    122  CE1       84.6830   18.3720   40.3240 C.ar  119  PHE119     -0.0003
    123  CE2       86.2980   16.6970   40.8290 C.ar  119  PHE119     -0.0003
    124  CZ        85.5590   17.3950   39.9000 C.ar  119  PHE119     -0.0000
    125  N         84.1790   23.7680   40.8510 N.3   122  ILE122     -0.1245
    126  CA        85.5260   23.9900   40.3410 C.3   122  ILE122      0.1561
    127  C         85.9240   25.4430   40.5970 C.2   122  ILE122      0.2260
    128  O         85.0530   26.3250   40.6360 O.2   122  ILE122     -0.2867
    129  CB        85.6010   23.7020   38.8280 C.3   122  ILE122      0.0252
    130  CG1       85.7050   22.1870   38.5880 C.3   122  ILE122      0.0019
    131  CG2       86.7960   24.4180   38.2210 C.3   122  ILE122      0.0019
    132  CD1       84.5010   21.6280   37.8720 C.3   122  ILE122      0.0001
    133  N         95.8060   30.0450   29.4390 N.3   190  TYR190     -0.1241
    134  CA        96.1670   28.8100   30.0750 C.3   190  TYR190      0.1605
    135  C         97.5430   29.0380   30.7040 C.2   190  TYR190      0.2264
    136  O         98.1390   30.0630   30.4150 O.2   190  TYR190     -0.2867
    137  CB        96.1890   27.5890   29.1720 C.3   190  TYR190      0.0534
    138  CG        94.8740   27.0450   28.6860 C.ar  190  TYR190     -0.0201
    139  CD1       93.9230   26.4450   29.4930 C.ar  190  TYR190     -0.0009
    140  CD2       94.6000   27.1490   27.3280 C.ar  190  TYR190     -0.0009
    141  CE1       92.7400   25.9530   28.9720 C.ar  190  TYR190      0.0417
    142  CE2       93.4320   26.6730   26.7990 C.ar  190  TYR190      0.0417
    143  CZ        92.5020   26.0800   27.6170 C.ar  190  TYR190      0.1957
    144  OH        91.3410   25.6140   27.0420 O.3   190  TYR190     -0.2866
    145  N        100.2070   23.2720   28.4750 N.3   214  ILE214     -0.1245
    146  CA        99.6100   24.0160   29.5930 C.3   214  ILE214      0.1561
    147  C         99.6220   23.1350   30.8360 C.2   214  ILE214      0.2260
    148  O         99.3310   21.9500   30.7290 O.2   214  ILE214     -0.2867
    149  CB        98.1730   24.4580   29.2610 C.3   214  ILE214      0.0252
    150  CG1       97.2030   23.2870   29.3780 C.3   214  ILE214      0.0019
    151  CG2       98.1450   25.0160   27.8300 C.3   214  ILE214      0.0019
    152  CD1       95.7590   23.6560   29.6080 C.3   214  ILE214      0.0001
    153  N         97.9950   21.8920   33.7890 N.3   216  ASP216     -0.1239
    154  CA        96.5600   21.8950   34.1270 C.3   216  ASP216      0.1674
    155  C         96.3180   20.8640   35.2240 C.2   216  ASP216      0.2266
    156  O         96.3740   19.6740   34.9270 O.2   216  ASP216     -0.2867
    157  CB        95.7580   21.4520   32.9000 C.3   216  ASP216      0.1410
    158  CG        94.2620   21.5170   33.1220 C.2   216  ASP216      0.3668
    159  OD1       93.8480   21.8970   34.2470 O.co2 216  ASP216     -0.2456
    160  OD2       93.5030   21.2200   32.1770 O.co2 216  ASP216     -0.2456
    161  N         93.5590   20.3090   36.4520 N.3   218  GLY218     -0.1210
    162  CA        92.2330   19.7330   36.3110 C.3   218  GLY218      0.1956
    163  C         92.2210   18.6540   35.2550 C.2   218  GLY218      0.2613
    164  O         91.1520   18.1030   35.0050 O.2   218  GLY218     -0.2717
    165  N         93.3690   18.3720   34.6530 N.am  219  THR219     -0.1938
    166  CA        93.5370   17.3030   33.6730 C.3   219  THR219      0.2028
    167  C         94.2940   16.1610   34.3390 C.2   219  THR219      0.2643
    168  O         95.3730   16.4180   34.8830 O.2   219  THR219     -0.2714
    169  CB        94.2890   17.7590   32.4140 C.3   219  THR219      0.1808
    170  OG1       93.4080   18.5080   31.5650 O.3   219  THR219     -0.2208
    171  CG2       94.8040   16.5580   31.6200 C.3   219  THR219      0.0379
    172  N         93.7290   14.9670   34.3520 N.am  220  SER220     -0.1935
    173  CA        94.2570   13.8340   35.1160 C.3   220  SER220      0.2055
    174  C         95.4450   13.2210   34.3910 C.2   220  SER220      0.2642
    175  O         96.4440   12.7560   34.9390 O.2   220  SER220     -0.2714
    176  CB        93.1710   12.7470   35.2310 C.3   220  SER220      0.2130
    177  OG        91.9550   13.2140   34.6710 O.3   220  SER220     -0.2179
    178  N         95.3580   13.2000   33.0570 N.am  221  LYS221     -0.1977
    179  CA        96.4660   12.5680   32.3730 C.3   221  LYS221      0.1596
    180  C         97.4170   13.5410   31.7250 C.2   221  LYS221      0.2287
    181  O         97.5310   14.7440   31.9110 O.2   221  LYS221     -0.2864
    182  CB        96.0280   11.5140   31.3550 C.3   221  LYS221      0.0298
    183  CG        94.7270   10.8210   31.7180 C.3   221  LYS221      0.0038
    184  CD        94.9800    9.5860   32.5600 C.3   221  LYS221      0.0206
    185  CE        94.9160    8.3610   31.6510 C.3   221  LYS221      0.1093
    186  NZ        94.5880    8.7840   30.2580 N.3   221  LYS221     -0.1314
    187  N         97.7900   14.7070   28.2440 N.3   223  VAL223     -0.1245
    188  CA        97.2080   14.7930   26.9140 C.3   223  VAL223      0.1561
    189  C         98.1840   15.3770   25.9040 C.2   223  VAL223      0.2260
    190  O         98.8740   16.3550   26.0820 O.2   223  VAL223     -0.2867
    191  CB        95.9080   15.6140   26.9720 C.3   223  VAL223      0.0252
    192  CG1       94.9920   15.3320   25.8060 C.3   223  VAL223      0.0019
    193  CG2       95.2130   15.3870   28.3050 C.3   223  VAL223      0.0019
    194  N         91.2120    1.6550   24.1630 N.3   245  GLU245     -0.1245
    195  CA        92.1890    2.1630   25.1250 C.3   245  GLU245      0.1567
    196  C         93.6350    1.7590   24.8500 C.2   245  GLU245      0.2260
    197  O         93.8660    1.1860   23.7820 O.2   245  GLU245     -0.2867
    198  CB        91.8210    1.7730   26.5640 C.3   245  GLU245      0.0388
    199  CG        92.1760    2.9070   27.5290 C.3   245  GLU245      0.1160
    200  CD        91.0730    3.9220   27.7470 C.2   245  GLU245      0.3649
    201  OE1       89.9590    3.7520   27.2060 O.co2 245  GLU245     -0.2457
    202  OE2       91.2760    4.9230   28.4790 O.co2 245  GLU245     -0.2457
    203  N         97.2610   10.3600   27.1040 N.3   288  GLN288     -0.1245
    204  CA        95.9340   10.4620   26.4850 C.3   288  GLN288      0.1566
    205  C         96.1290   11.3210   25.2350 C.2   288  GLN288      0.2260
    206  O         96.8630   12.3200   25.3030 O.2   288  GLN288     -0.2867
    207  CB        95.0710   11.2330   27.5100 C.3   288  GLN288      0.0367
    208  CG        93.6950   11.5900   27.0030 C.3   288  GLN288      0.0905
    209  CD        92.8190   12.3330   27.9770 C.2   288  GLN288      0.2608
    210  OE1       92.9390   12.1760   29.1930 O.2   288  GLN288     -0.2717
    211  NE2       91.9300   13.1430   27.4150 N.am  288  GLN288     -0.0878
    212  N         94.5770   13.7280   21.9600 N.3   290  GLU290     -0.1301
    213  CA        93.4330   14.6540   21.8500 C.3   290  GLU290      0.1252
    214  C         92.8070   14.4120   20.4600 C.3   290  GLU290      0.2009
    215  O         93.6380   14.6040   19.5750 O.3   290  GLU290     -0.2188
    216  CB        93.9800   16.0960   21.7670 C.3   290  GLU290      0.0335
    217  CG        94.1300   16.6680   23.1670 C.3   290  GLU290      0.1156
    218  CD        95.2380   17.6980   23.2580 C.2   290  GLU290      0.3649
    219  OE1       96.3800   17.3790   22.8820 O.co2 290  GLU290     -0.2457
    220  OE2       94.9550   18.8260   23.7090 O.co2 290  GLU290     -0.2457
    221  N         98.6140   18.8900   27.1190 N.3   297  ILE297     -0.1245
    222  CA        98.1730   19.2240   28.4710 C.3   297  ILE297      0.1561
    223  C         98.9000   18.3290   29.4580 C.2   297  ILE297      0.2260
    224  O         98.8610   17.1080   29.4310 O.2   297  ILE297     -0.2867
    225  CB        96.6650   19.0890   28.6270 C.3   297  ILE297      0.0252
    226  CG1       95.9080   19.7770   27.5090 C.3   297  ILE297      0.0019
    227  CG2       96.1830   19.4840   29.9950 C.3   297  ILE297      0.0019
    228  CD1       94.4060   19.7180   27.5800 C.3   297  ILE297      0.0001
@<TRIPOS>BOND
     1   215   214    1
     2   214   213    1
     3   216   213    1
     4   216   217    1
     5   213   212    1
     6   219   218   ar
     7   217   218    1
     8   218   220   ar
     9   197   196    2
    10   194   195    1
    11   196   195    1
    12   195   198    1
    13   205   206    2
    14   205   204    1
    15   192   191    1
    16   189   190    2
    17   189   188    1
    18   204   203    1
    19   204   207    1
    20   198   199    1
    21   142   140   ar
    22   142   143   ar
    23   188   191    1
    24   188   187    1
    25   191   193    1
    26   208   207    1
    27   208   209    1
    28   144   143    1
    29   221   222    1
    30   201   200   ar
    31   140   138   ar
    32   211   209   am
    33   226   228    1
    34   226   225    1
    35   199   200    1
    36    63    62    2
    37   143   141   ar
    38    61    62    1
    39    61    60    1
    40    51    50    2
    41   200   202   ar
    42   151   149    1
    43   209   210    2
    44    62    64   am
    45   222   225    1
    46   222   223    1
    47   145   146    1
    48    50    60   am
    49    50    49    1
    50   225   227    1
    51   138   137    1
    52   138   139   ar
    53   141   139   ar
    54   137   134    1
    55   149   150    1
    56   149   146    1
    57   150   152    1
    58   224   223    2
    59   133   134    1
    60    64    65    1
    61   146   147    1
    62    48    49    1
    63    49    52    1
    64   134   135    1
    65    65    68    1
    66    65    66    1
    67   186   185    1
    68    69    68    1
    69   136   135    2
    70   148   147    2
    71    68    70    1
    72    52    53    1
    73    66    67    2
    74   182   183    1
    75   182   179    1
    76   170   169    1
    77   171   169    1
    78   185   184    1
    79   183   184    1
    80   180   181    2
    81   180   179    1
    82    47    46    2
    83    53    54   ar
    84    53    55   ar
    85   160   158   ar
    86    85    83    1
    87   179   178    1
    88   169   166    1
    89    54    56   ar
    90    55    57   ar
    91    46    45    1
    92   157   158    1
    93   157   154    1
    94   178   174   am
    95   158   159   ar
    96    45    44    1
    97    71    72    1
    98    77    76   ar
    99    56    58   ar
   100   166   167    1
   101   166   165    1
   102    57    58   ar
   103   153   154    1
   104    83    84    1
   105    83    80    1
   106   154   155    1
   107    58    59    1
   108    75    76    1
   109    75    72    1
   110   167   172   am
   111   167   168    2
   112   172   173    1
   113    79    80    1
   114    79    73   am
   115   174   175    2
   116   174   173    1
   117    76    78   ar
   118    72    73    1
   119   165   163   am
   120   177   176    1
   121    80    81    1
   122   156   155    2
   123    95    96   ar
   124    95    93   ar
   125    73    74    2
   126   164   163    2
   127   173   176    1
   128    43    41   ar
   129   163   162    1
   130    96    94   ar
   131    42    41   ar
   132    93    91   ar
   133    41    40    1
   134    81    86   am
   135    81    82    2
   136   162   161    1
   137    94    92   ar
   138    86    87    1
   139    91    92   ar
   140    91    90    1
   141    18    17    1
   142    40    37    1
   143    39    38    2
   144    38    37    1
   145   106   104   ar
   146   106   107   ar
   147   104   102   ar
   148    87    90    1
   149    87    88    1
   150   132   130    1
   151    37    36    1
   152   131   129    1
   153    17    14    1
   154    16    15    2
   155   130   129    1
   156   108   107    1
   157   107   105   ar
   158    88    89    2
   159   129   126    1
   160    35    33    1
   161    14    15    1
   162    14    13    1
   163   102   101    1
   164   102   103   ar
   165    15    19   am
   166   101    98    1
   167    97    98    1
   168   124   122   ar
   169   124   123   ar
   170   105   103   ar
   171    98    99    1
   172   113   110    1
   173   122   120   ar
   174   126   127    1
   175   126   125    1
   176    33    34    1
   177    33    32    1
   178    24    25    1
   179    24    23    1
   180    27    25   am
   181   109    99   am
   182   109   110    1
   183    19    20    1
   184   127   128    2
   185    99   100    2
   186   123   121   ar
   187   110   111    1
   188    25    26    2
   189    20    23    1
   190    20    21    1
   191    32    29    1
   192    31    30    2
   193   120   119   ar
   194    30    29    1
   195   121   119   ar
   196     4     3    2
   197    21    22    2
   198    29    28    1
   199   111   112    2
   200   119   118    1
   201    10     8   ar
   202    10    11   ar
   203     8     6   ar
   204   117   116    2
   205     3     2    1
   206    12    11    1
   207   116   115    1
   208    11     9   ar
   209   118   115    1
   210   114   115    1
   211     6     5    1
   212     6     7   ar
   213     5     2    1
   214     2     1    1
   215     9     7   ar
