@<TRIPOS>MOLECULE
tmp/1czjA00.pdb
 178 174 0 0 0
SMALL
GASTEIGER

@<TRIPOS>ATOM
      1  N         11.0360   19.7990   -4.2770 N.3     2  PHE2       -0.1227
      2  CA        10.7440   20.6070   -3.0960 C.3     2  PHE2        0.1736
      3  C          9.7520   21.7470   -3.3320 C.2     2  PHE2        0.2595
      4  O         10.0460   22.6680   -4.0940 O.2     2  PHE2       -0.2718
      5  CB        12.0560   21.1780   -2.5500 C.3     2  PHE2        0.0547
      6  CG        11.8740   22.3030   -1.5670 C.ar    2  PHE2       -0.0202
      7  CD1       10.9730   22.1950   -0.5100 C.ar    2  PHE2       -0.0042
      8  CD2       12.6140   23.4660   -1.6930 C.ar    2  PHE2       -0.0042
      9  CE1       10.8180   23.2260    0.3980 C.ar    2  PHE2       -0.0003
     10  CE2       12.4670   24.5020   -0.7890 C.ar    2  PHE2       -0.0003
     11  CZ        11.5690   24.3840    0.2590 C.ar    2  PHE2       -0.0000
     12  N          8.6190   21.7140   -2.6290 N.am    3  GLU3       -0.1965
     13  CA         7.6080   22.7590   -2.7690 C.3     3  GLU3        0.1733
     14  C          7.5400   23.6410   -1.5230 C.2     3  GLU3        0.2616
     15  O          7.5700   23.1470   -0.3920 O.2     3  GLU3       -0.2715
     16  CB         6.2340   22.1610   -3.0770 C.3     3  GLU3        0.0429
     17  CG         5.1930   23.2010   -3.5050 C.3     3  GLU3        0.1163
     18  CD         3.9130   22.5770   -4.0490 C.2     3  GLU3        0.3649
     19  OE1        3.9330   22.0730   -5.1950 O.co2   3  GLU3       -0.2457
     20  OE2        2.8840   22.6050   -3.3360 O.co2   3  GLU3       -0.2457
     21  N          7.4910   24.9500   -1.7440 N.am    4  ILE4       -0.1964
     22  CA         7.4390   25.9180   -0.6600 C.3     4  ILE4        0.1712
     23  C          5.9980   26.3290   -0.3770 C.2     4  ILE4        0.2458
     24  O          5.2170   26.5610   -1.3020 O.2     4  ILE4       -0.2730
     25  CB         8.2520   27.2180   -0.9970 C.3     4  ILE4        0.0289
     26  CG1        9.7460   26.9270   -1.1280 C.3     4  ILE4        0.0022
     27  CG2        8.0480   28.2750    0.0800 C.3     4  ILE4        0.0023
     28  CD1       10.1700   26.4450   -2.4870 C.3     4  ILE4        0.0001
     29  N          5.6120   26.3610    0.9080 N.am    5  PRO5       -0.2727
     30  CA         4.2560   26.7590    1.3000 C.3     5  PRO5        0.1402
     31  C          4.1950   28.2860    1.3220 C.2     5  PRO5        0.2269
     32  O          4.9690   28.9370    2.0280 O.2     5  PRO5       -0.2865
     33  CB         4.1250   26.1800    2.7070 C.3     5  PRO5        0.0296
     34  CG         5.5230   26.2760    3.2390 C.3     5  PRO5        0.0237
     35  CD         6.3610   25.8240    2.0610 C.3     5  PRO5        0.0939
     36  N          1.6840   30.3180    5.8210 N.3     8  VAL8       -0.1245
     37  CA         1.9730   29.4380    6.9440 C.3     8  VAL8        0.1561
     38  C          1.3710   30.0470    8.2080 C.2     8  VAL8        0.2260
     39  O          1.7130   31.1660    8.5870 O.2     8  VAL8       -0.2867
     40  CB         3.5000   29.2820    7.1480 C.3     8  VAL8        0.0252
     41  CG1        3.7850   28.4270    8.3650 C.3     8  VAL8        0.0019
     42  CG2        4.1520   28.6750    5.9010 C.3     8  VAL8        0.0019
     43  N          1.4140   30.2130   11.8650 N.3    10  MET10      -0.1245
     44  CA         2.1830   29.8780   13.0520 C.3    10  MET10       0.1570
     45  C          1.2450   29.9860   14.2470 C.2    10  MET10       0.2261
     46  O          0.4640   30.9370   14.3400 O.2    10  MET10      -0.2867
     47  CB         3.3590   30.8370   13.1830 C.3    10  MET10       0.0387
     48  CG         4.2760   30.7980   11.9760 C.3    10  MET10       0.0595
     49  SD         5.6210   31.9590   12.0730 S.3    10  MET10      -0.1393
     50  CE         6.7710   31.0640   13.0840 C.3    10  MET10       0.0692
     51  N          2.2240   33.7630    8.2760 N.3    27  PHE27      -0.1241
     52  CA         3.4330   34.1900    7.5870 C.3    27  PHE27       0.1605
     53  C          3.2870   33.9220    6.0930 C.2    27  PHE27       0.2264
     54  O          2.8100   32.8630    5.6860 O.2    27  PHE27      -0.2867
     55  CB         4.6670   33.4690    8.1360 C.3    27  PHE27       0.0534
     56  CG         5.9320   33.8310    7.4230 C.ar   27  PHE27      -0.0203
     57  CD1        6.5020   35.0870    7.5870 C.ar   27  PHE27      -0.0042
     58  CD2        6.5120   32.9470    6.5330 C.ar   27  PHE27      -0.0042
     59  CE1        7.6270   35.4650    6.8660 C.ar   27  PHE27      -0.0003
     60  CE2        7.6410   33.3130    5.8040 C.ar   27  PHE27      -0.0003
     61  CZ         8.1970   34.5780    5.9720 C.ar   27  PHE27      -0.0000
     62  N          5.4080   33.9400    2.4790 N.3    29  HIS29      -0.1241
     63  CA         6.7130   33.9860    1.8380 C.3    29  HIS29       0.1621
     64  C          6.7980   35.0070    0.6910 C.2    29  HIS29       0.2264
     65  O          7.8330   35.6400    0.4950 O.2    29  HIS29      -0.2867
     66  CB         7.0970   32.5970    1.3120 C.3    29  HIS29       0.0745
     67  CG         7.6790   31.6860    2.3490 C.ar   29  HIS29       0.0817
     68  ND1        6.9770   30.6790    2.9750 N.ar   29  HIS29      -0.2268
     69  CD2        8.9430   31.6060    2.8380 C.ar   29  HIS29       0.1154
     70  CE1        7.8150   30.0370    3.8020 C.ar   29  HIS29       0.1986
     71  NE2        9.0240   30.5630    3.7540 N.ar   29  HIS29      -0.2212
     72  N          8.1690   38.2430    1.4200 N.3    32  HIS32      -0.1226
     73  CA         9.5320   38.1240    1.9270 C.3    32  HIS32       0.1752
     74  C         10.4670   37.4570    0.9210 C.2    32  HIS32       0.2595
     75  O         11.6370   37.2100    1.2190 O.2    32  HIS32      -0.2718
     76  CB         9.5140   37.3110    3.2300 C.3    32  HIS32       0.0759
     77  CG         8.6770   37.9250    4.3100 C.ar   32  HIS32       0.0818
     78  ND1        7.3290   37.7030    4.4680 N.ar   32  HIS32      -0.2268
     79  CD2        9.0150   38.8150    5.2770 C.ar   32  HIS32       0.1154
     80  CE1        6.9010   38.4520    5.4950 C.ar   32  HIS32       0.1986
     81  NE2        7.8910   39.1490    6.0210 N.ar   32  HIS32      -0.2212
     82  N          9.9830   37.2530   -0.2970 N.am   33  MET33      -0.1979
     83  CA        10.7550   36.5630   -1.3250 C.3    33  MET33       0.1605
     84  C         12.1210   37.1360   -1.7070 C.2    33  MET33       0.2287
     85  O         12.9590   36.4210   -2.2590 O.2    33  MET33      -0.2864
     86  CB         9.8910   36.3430   -2.5730 C.3    33  MET33       0.0413
     87  CG        10.4420   35.3130   -3.5620 C.3    33  MET33       0.0598
     88  SD        10.7180   33.6610   -2.8570 S.3    33  MET33      -0.1393
     89  CE         9.0370   33.0830   -2.6450 C.3    33  MET33       0.0692
     90  N         14.3750   38.1210    0.4010 N.3    35  ILE35      -0.1231
     91  CA        15.3540   37.8320    1.4410 C.3    35  ILE35       0.1692
     92  C         15.8530   36.4110    1.2590 C.2    35  ILE35       0.2592
     93  O         15.0710   35.5130    0.9450 O.2    35  ILE35      -0.2718
     94  CB        14.7330   38.0340    2.8540 C.3    35  ILE35       0.0266
     95  CG1       14.2160   39.4710    2.9850 C.3    35  ILE35       0.0019
     96  CG2       15.7550   37.7490    3.9440 C.3    35  ILE35       0.0020
     97  CD1       13.0360   39.6230    3.9060 C.3    35  ILE35       0.0001
     98  N         17.1620   36.2210    1.4100 N.am   36  ALA36      -0.1966
     99  CA        17.7870   34.9070    1.2740 C.3    36  ALA36       0.1728
    100  C         17.1070   33.8840    2.1910 C.2    36  ALA36       0.2616
    101  O         16.8840   34.1510    3.3710 O.2    36  ALA36      -0.2715
    102  CB        19.2720   35.0010    1.6020 C.3    36  ALA36       0.0334
    103  N         16.7810   32.7170    1.6440 N.am   37  CYS37      -0.1968
    104  CA        16.1330   31.6780    2.4250 C.3    37  CYS37       0.1712
    105  C         16.8890   31.3940    3.7220 C.2    37  CYS37       0.2296
    106  O         16.3070   31.4690    4.8010 O.2    37  CYS37      -0.2864
    107  CB        15.9900   30.3820    1.6300 C.3    37  CYS37       0.0983
    108  SG        15.3780   30.5400   -0.0750 S.3    37  CYS37      -0.0798
    109  N         16.6400   33.6370    7.2110 N.3    40  CYS40      -0.1221
    110  CA        15.6320   33.3520    8.2270 C.3    40  CYS40       0.1808
    111  C         15.8390   31.9270    8.7060 C.2    40  CYS40       0.2601
    112  O         15.9040   31.6780    9.9080 O.2    40  CYS40      -0.2717
    113  CB        14.2130   33.5060    7.6700 C.3    40  CYS40       0.0970
    114  SG        13.7510   35.2240    7.2760 S.3    40  CYS40      -0.0800
    115  N         15.9320   30.9960    7.7560 N.am   41  HIS41      -0.1975
    116  CA        16.1430   29.5810    8.0440 C.3    41  HIS41       0.1656
    117  C         17.6340   29.4180    8.2400 C.2    41  HIS41       0.2291
    118  O         18.3110   28.6980    7.5030 O.2    41  HIS41      -0.2864
    119  CB        15.6230   28.7270    6.8820 C.3    41  HIS41       0.0771
    120  CG        14.1460   28.8460    6.6790 C.ar   41  HIS41       0.0820
    121  ND1       13.2060   28.3650    7.5620 N.ar   41  HIS41      -0.2267
    122  CD2       13.4420   29.4780    5.7080 C.ar   41  HIS41       0.1154
    123  CE1       11.9920   28.7180    7.1140 C.ar   41  HIS41       0.1986
    124  NE2       12.0760   29.3970    5.9870 N.ar   41  HIS41      -0.2212
    125  N         14.8670   22.2880    5.9950 N.3    50  ILE50      -0.1231
    126  CA        14.2290   23.5340    6.3750 C.3    50  ILE50       0.1692
    127  C         13.1080   23.0540    7.2840 C.2    50  ILE50       0.2592
    128  O         12.2800   22.2190    6.8870 O.2    50  ILE50      -0.2718
    129  CB        13.6780   24.3300    5.1690 C.3    50  ILE50       0.0266
    130  CG1       14.8440   24.9470    4.3810 C.3    50  ILE50       0.0019
    131  CG2       12.7280   25.4290    5.6590 C.3    50  ILE50       0.0020
    132  CD1       14.4260   25.7550    3.1750 C.3    50  ILE50       0.0001
    133  N         13.1320   23.5170    8.5260 N.am   51  GLU51      -0.1966
    134  CA        12.1350   23.1070    9.5020 C.3    51  GLU51       0.1733
    135  C         11.5330   24.2620   10.3020 C.2    51  GLU51       0.2617
    136  O         12.0290   25.3980   10.2710 O.2    51  GLU51      -0.2715
    137  CB        12.7540   22.0690   10.4480 C.3    51  GLU51       0.0429
    138  CG        14.0290   22.5400   11.1570 C.3    51  GLU51       0.1163
    139  CD        14.7030   21.4540   11.9920 C.2    51  GLU51       0.3649
    140  OE1       14.1660   20.3310   12.0920 O.co2  51  GLU51      -0.2457
    141  OE2       15.7840   21.7220   12.5530 O.co2  51  GLU51      -0.2457
    142  N         10.4600   23.9520   11.0230 N.am   52  SER52      -0.1936
    143  CA         9.7550   24.9170   11.8630 C.3    52  SER52       0.2055
    144  C         10.7130   25.5900   12.8530 C.2    52  SER52       0.2643
    145  O         11.6090   24.9340   13.3830 O.2    52  SER52      -0.2714
    146  CB         8.6510   24.1780   12.6200 C.3    52  SER52       0.2130
    147  OG         7.9780   25.0260   13.5300 O.3    52  SER52      -0.2179
    148  N         10.5410   26.8880   13.1030 N.am   53  CYS53      -0.1953
    149  CA        11.4210   27.5840   14.0510 C.3    53  CYS53       0.1843
    150  C         11.1830   27.0570   15.4580 C.2    53  CYS53       0.2625
    151  O         12.0920   27.0050   16.2860 O.2    53  CYS53      -0.2714
    152  CB        11.1500   29.0880   14.0860 C.3    53  CYS53       0.0997
    153  SG        10.9330   29.9400   12.5010 S.3    53  CYS53      -0.0797
    154  N          9.9480   26.6460   15.7090 N.am   54  MET54      -0.1977
    155  CA         9.5370   26.1580   17.0170 C.3    54  MET54       0.1605
    156  C          9.6690   24.6470   17.2060 C.2    54  MET54       0.2287
    157  O          8.8680   24.0320   17.9150 O.2    54  MET54      -0.2864
    158  CB         8.1020   26.6240   17.2850 C.3    54  MET54       0.0413
    159  CG         7.9090   28.1190   17.0340 C.3    54  MET54       0.0598
    160  SD         6.2540   28.7240   17.3510 S.3    54  MET54      -0.1393
    161  CE         5.3740   28.0800   15.9340 C.3    54  MET54       0.0692
    162  N         10.8170   36.0440   18.1890 N.3    75  PHE75      -0.1241
    163  CA        10.0080   36.7530   17.2100 C.3    75  PHE75       0.1605
    164  C          9.7230   38.2350   17.4570 C.2    75  PHE75       0.2264
    165  O          9.1900   38.9190   16.5720 O.2    75  PHE75      -0.2867
    166  CB         8.7130   35.9790   17.0080 C.3    75  PHE75       0.0534
    167  CG         8.9330   34.5410   16.6110 C.ar   75  PHE75      -0.0203
    168  CD1        9.6850   34.2250   15.4730 C.ar   75  PHE75      -0.0042
    169  CD2        8.3790   33.5050   17.3540 C.ar   75  PHE75      -0.0042
    170  CE1        9.8730   32.9050   15.0810 C.ar   75  PHE75      -0.0003
    171  CE2        8.5600   32.1820   16.9720 C.ar   75  PHE75      -0.0003
    172  CZ         9.3090   31.8790   15.8300 C.ar   75  PHE75      -0.0000
    173  N         11.1130   38.8330   13.5520 N.3    85  CYS85      -0.1235
    174  CA        10.0080   39.4820   12.8540 C.3    85  CYS85       0.1677
    175  C          9.9520   40.9850   13.1290 C.2    85  CYS85       0.2270
    176  O         10.1830   41.7900   12.2190 O.2    85  CYS85      -0.2867
    177  CB         8.6650   38.8410   13.2130 C.3    85  CYS85       0.0956
    178  SG         8.6210   37.0230   13.2420 S.3    85  CYS85      -0.0801
@<TRIPOS>BOND
     1    19    18   ar
     2     1     2    1
     3     4     3    2
     4    18    17    1
     5    18    20   ar
     6    87    88    1
     7    87    86    1
     8    17    16    1
     9     3     2    1
    10     3    12   am
    11     2     5    1
    12    16    13    1
    13    88    89    1
    14    13    12    1
    15    13    14    1
    16    86    83    1
    17     5     6    1
    18    28    26    1
    19    85    84    2
    20    21    14   am
    21    21    22    1
    22    84    83    1
    23     8     6   ar
    24     8    10   ar
    25     6     7   ar
    26    14    15    2
    27    83    82    1
    28    24    23    2
    29    26    25    1
    30    25    22    1
    31    25    27    1
    32    10    11   ar
    33    22    23    1
    34     7     9   ar
    35    23    29   am
    36    82    74   am
    37   108   107    1
    38    11     9   ar
    39    90    91    1
    40    65    64    2
    41    64    63    1
    42    29    30    1
    43    29    35    1
    44    74    75    2
    45    74    73    1
    46    93    92    2
    47    92    98   am
    48    92    91    1
    49    99    98    1
    50    99   102    1
    51    99   100    1
    52    30    31    1
    53    30    33    1
    54    66    63    1
    55    66    67    1
    56    31    32    2
    57    72    73    1
    58    91    94    1
    59   107   104    1
    60   103   100   am
    61   103   104    1
    62    63    62    1
    63    73    76    1
    64    35    34    1
    65   100   101    2
    66    67    69   ar
    67    67    68   ar
    68   104   105    1
    69    33    34    1
    70    69    71   ar
    71    94    95    1
    72    94    96    1
    73    68    70   ar
    74    95    97    1
    75   132   130    1
    76    76    77    1
    77   105   106    2
    78    71    70   ar
    79    77    78   ar
    80    77    79   ar
    81   130   129    1
    82    78    80   ar
    83   129   131    1
    84   129   126    1
    85    79    81   ar
    86    80    81   ar
    87    54    53    2
    88   122   124   ar
    89   122   120   ar
    90    60    61   ar
    91    60    58   ar
    92    36    37    1
    93    42    40    1
    94    61    59   ar
    95   124   123   ar
    96   125   126    1
    97    53    52    1
    98   126   127    1
    99    58    56   ar
   100   120   119    1
   101   120   121   ar
   102    59    57   ar
   103   119   116    1
   104   128   127    2
   105    37    40    1
   106    37    38    1
   107   123   121   ar
   108    40    41    1
   109   109   110    1
   110   114   113    1
   111   127   133   am
   112    56    57   ar
   113    56    55    1
   114   118   117    2
   115    52    55    1
   116    52    51    1
   117   113   110    1
   118   115   116    1
   119   115   111   am
   120   116   117    1
   121    38    39    2
   122   110   111    1
   123   133   134    1
   124   111   112    2
   125   134   135    1
   126   134   137    1
   127   136   135    2
   128   135   142   am
   129   137   138    1
   130   142   143    1
   131   138   139    1
   132   143   146    1
   133   143   144    1
   134    43    44    1
   135    48    49    1
   136    48    47    1
   137   139   140   ar
   138   139   141   ar
   139    49    50    1
   140   176   175    2
   141   153   152    1
   142   146   147    1
   143   144   148   am
   144   144   145    2
   145   174   175    1
   146   174   177    1
   147   174   173    1
   148    44    47    1
   149    44    45    1
   150   148   149    1
   151   177   178    1
   152   149   152    1
   153   149   150    1
   154    45    46    2
   155   170   168   ar
   156   170   172   ar
   157   150   154   am
   158   150   151    2
   159   168   167   ar
   160   154   155    1
   161   172   171   ar
   162   161   160    1
   163   165   164    2
   164   167   166    1
   165   167   169   ar
   166   171   169   ar
   167   166   163    1
   168   155   156    1
   169   155   158    1
   170   159   158    1
   171   159   160    1
   172   156   157    2
   173   163   164    1
   174   163   162    1
