@<TRIPOS>MOLECULE
tmp/1czjA01.pdb
 171 166 0 0 0
SMALL
GASTEIGER

@<TRIPOS>ATOM
      1  N         16.6400   33.6370    7.2110 N.3    40  CYS40      -0.1221
      2  CA        15.6320   33.3520    8.2270 C.3    40  CYS40       0.1808
      3  C         15.8390   31.9270    8.7060 C.2    40  CYS40       0.2601
      4  O         15.9040   31.6780    9.9080 O.2    40  CYS40      -0.2717
      5  CB        14.2130   33.5060    7.6700 C.3    40  CYS40       0.0970
      6  SG        13.7510   35.2240    7.2760 S.3    40  CYS40      -0.0800
      7  N         15.9320   30.9960    7.7560 N.am   41  HIS41      -0.1961
      8  CA        16.1430   29.5810    8.0440 C.3    41  HIS41       0.1787
      9  C         17.6340   29.4180    8.2400 C.2    41  HIS41       0.2620
     10  O         18.3110   28.6980    7.5030 O.2    41  HIS41      -0.2715
     11  CB        15.6230   28.7270    6.8820 C.3    41  HIS41       0.0785
     12  CG        14.1460   28.8460    6.6790 C.ar   41  HIS41       0.0821
     13  ND1       13.2060   28.3650    7.5620 N.ar   41  HIS41      -0.2267
     14  CD2       13.4420   29.4780    5.7080 C.ar   41  HIS41       0.1154
     15  CE1       11.9920   28.7180    7.1140 C.ar   41  HIS41       0.1986
     16  NE2       12.0760   29.3970    5.9870 N.ar   41  HIS41      -0.2212
     17  N         18.1290   30.0740    9.2820 N.am   42  HIS42      -0.1959
     18  CA        19.5430   30.1040    9.5920 C.3    42  HIS42       0.1787
     19  C         20.2300   28.8090   10.0000 C.2    42  HIS42       0.2620
     20  O         21.4620   28.7720   10.0500 O.2    42  HIS42      -0.2715
     21  CB        19.8200   31.2100   10.6180 C.3    42  HIS42       0.0785
     22  CG        19.4160   30.8610   12.0130 C.ar   42  HIS42       0.0821
     23  ND1       20.3140   30.5560   13.0150 N.ar   42  HIS42      -0.2267
     24  CD2       18.1850   30.7740   12.5810 C.ar   42  HIS42       0.1154
     25  CE1       19.6280   30.3030   14.1260 C.ar   42  HIS42       0.1986
     26  NE2       18.3300   30.4210   13.9200 N.ar   42  HIS42      -0.2212
     27  N         19.4770   27.7480   10.2810 N.am   43  THR43      -0.1951
     28  CA        20.1150   26.4920   10.6720 C.3    43  THR43       0.1897
     29  C         20.1990   25.4510    9.5530 C.2    43  THR43       0.2313
     30  O         20.4610   24.2700    9.8110 O.2    43  THR43      -0.2863
     31  CB        19.4550   25.8590   11.9300 C.3    43  THR43       0.1794
     32  OG1       18.0610   25.6400   11.7000 O.3    43  THR43      -0.2208
     33  CG2       19.6290   26.7610   13.1230 C.3    43  THR43       0.0378
     34  N         23.2540   23.3680    9.3960 N.3    46  ASP46      -0.1225
     35  CA        23.3280   22.4130   10.4980 C.3    46  ASP46       0.1805
     36  C         22.6450   21.0750   10.2650 C.2    46  ASP46       0.2598
     37  O         23.1330   20.0440   10.7250 O.2    46  ASP46      -0.2718
     38  CB        22.7540   23.0360   11.7760 C.3    46  ASP46       0.1424
     39  CG        23.6210   24.1490   12.3280 C.2    46  ASP46       0.3668
     40  OD1       24.7780   23.8640   12.7030 O.co2  46  ASP46      -0.2456
     41  OD2       23.1470   25.3060   12.3970 O.co2  46  ASP46      -0.2456
     42  N         21.5150   21.0950    9.5690 N.am   47  THR47      -0.1953
     43  CA        20.7380   19.8860    9.3430 C.3    47  THR47       0.1897
     44  C         20.4270   19.5550    7.8900 C.2    47  THR47       0.2313
     45  O         19.8990   18.4820    7.5970 O.2    47  THR47      -0.2863
     46  CB        19.3840   20.0330   10.0320 C.3    47  THR47       0.1794
     47  OG1       18.7110   21.1740    9.4790 O.3    47  THR47      -0.2208
     48  CG2       19.5560   20.2340   11.5290 C.3    47  THR47       0.0378
     49  N         13.1320   23.5170    8.5260 N.3    51  GLU51      -0.1231
     50  CA        12.1350   23.1070    9.5020 C.3    51  GLU51       0.1699
     51  C         11.5330   24.2620   10.3020 C.2    51  GLU51       0.2593
     52  O         12.0290   25.3980   10.2710 O.2    51  GLU51      -0.2718
     53  CB        12.7540   22.0690   10.4480 C.3    51  GLU51       0.0402
     54  CG        14.0290   22.5400   11.1570 C.3    51  GLU51       0.1161
     55  CD        14.7030   21.4540   11.9920 C.2    51  GLU51       0.3649
     56  OE1       14.1660   20.3310   12.0920 O.co2  51  GLU51      -0.2457
     57  OE2       15.7840   21.7220   12.5530 O.co2  51  GLU51      -0.2457
     58  N         10.4600   23.9520   11.0230 N.am   52  SER52      -0.1938
     59  CA         9.7550   24.9170   11.8630 C.3    52  SER52       0.2055
     60  C         10.7130   25.5900   12.8530 C.2    52  SER52       0.2643
     61  O         11.6090   24.9340   13.3830 O.2    52  SER52      -0.2714
     62  CB         8.6510   24.1780   12.6200 C.3    52  SER52       0.2130
     63  OG         7.9780   25.0260   13.5300 O.3    52  SER52      -0.2179
     64  N         10.5410   26.8880   13.1030 N.am   53  CYS53      -0.1967
     65  CA        11.4210   27.5840   14.0510 C.3    53  CYS53       0.1712
     66  C         11.1830   27.0570   15.4580 C.2    53  CYS53       0.2296
     67  O         12.0920   27.0050   16.2860 O.2    53  CYS53      -0.2864
     68  CB        11.1500   29.0880   14.0860 C.3    53  CYS53       0.0983
     69  SG        10.9330   29.9400   12.5010 S.3    53  CYS53      -0.0798
     70  N         14.0760   21.5600   20.5800 N.3    57  GLY57      -0.1210
     71  CA        15.5030   21.8290   20.5890 C.3    57  GLY57       0.1956
     72  C         15.8830   23.1800   20.0050 C.2    57  GLY57       0.2612
     73  O         17.0250   23.6310   20.1500 O.2    57  GLY57      -0.2717
     74  N         14.9300   23.8240   19.3370 N.am   58  CYS58      -0.1956
     75  CA        15.1680   25.1280   18.7350 C.3    58  CYS58       0.1843
     76  C         14.4930   26.2230   19.5730 C.2    58  CYS58       0.2625
     77  O         14.8220   26.3880   20.7500 O.2    58  CYS58      -0.2714
     78  CB        14.6810   25.1180   17.2860 C.3    58  CYS58       0.0997
     79  SG        15.4490   23.7890   16.3010 S.3    58  CYS58      -0.0797
     80  N         13.5440   26.9520   18.9980 N.am   59  HIS59      -0.1973
     81  CA        12.8630   28.0070   19.7390 C.3    59  HIS59       0.1656
     82  C         11.5070   27.4910   20.1970 C.2    59  HIS59       0.2291
     83  O         10.4580   27.9790   19.7650 O.2    59  HIS59      -0.2864
     84  CB        12.7130   29.2410   18.8550 C.3    59  HIS59       0.0771
     85  CG        14.0100   29.7280   18.2910 C.ar   59  HIS59       0.0820
     86  ND1       14.9030   30.5170   18.9830 N.ar   59  HIS59      -0.2267
     87  CD2       14.5820   29.5000   17.0830 C.ar   59  HIS59       0.1154
     88  CE1       15.9600   30.7310   18.1890 C.ar   59  HIS59       0.1986
     89  NE2       15.8120   30.1330   17.0200 N.ar   59  HIS59      -0.2212
     90  N         17.0160   32.5810   24.6450 N.3    68  ILE68      -0.1245
     91  CA        17.1440   32.4780   23.1920 C.3    68  ILE68       0.1561
     92  C         16.1890   31.4210   22.6390 C.2    68  ILE68       0.2260
     93  O         15.7230   31.5110   21.4990 O.2    68  ILE68      -0.2867
     94  CB        18.6120   32.1580   22.7970 C.3    68  ILE68       0.0252
     95  CG1       19.4660   33.4100   22.9780 C.3    68  ILE68       0.0019
     96  CG2       18.7110   31.6410   21.3650 C.3    68  ILE68       0.0019
     97  CD1       20.9140   33.2150   22.6490 C.3    68  ILE68       0.0001
     98  N         11.1080   36.0450   22.8400 N.3    73  ARG73      -0.1231
     99  CA        12.3080   36.7770   22.4600 C.3    73  ARG73       0.1694
    100  C         12.5640   36.6600   20.9590 C.2    73  ARG73       0.2593
    101  O         12.6390   37.6700   20.2590 O.2    73  ARG73      -0.2718
    102  CB        13.5310   36.2720   23.2360 C.3    73  ARG73       0.0321
    103  CG        14.7870   37.0750   22.9450 C.3    73  ARG73       0.0489
    104  CD        16.0270   36.4430   23.5450 C.3    73  ARG73       0.2205
    105  NE        17.2190   37.2390   23.2630 N.pl3  73  ARG73      -0.0865
    106  CZ        17.8930   37.2080   22.1150 C.cat  73  ARG73       0.5346
    107  NH1       17.5050   36.4140   21.1260 N.pl3  73  ARG73       0.1354
    108  NH2       18.9460   37.9960   21.9440 N.pl3  73  ARG73       0.1354
    109  N         12.6000   35.4170   20.4790 N.am   74  THR74      -0.1939
    110  CA        12.8660   35.0720   19.0810 C.3    74  THR74       0.2028
    111  C         12.1210   35.8800   18.0140 C.2    74  THR74       0.2642
    112  O         12.7270   36.3670   17.0620 O.2    74  THR74      -0.2714
    113  CB        12.6050   33.5550   18.8300 C.3    74  THR74       0.1808
    114  OG1       13.4100   32.7720   19.7220 O.3    74  THR74      -0.2208
    115  CG2       12.9480   33.1680   17.3980 C.3    74  THR74       0.0379
    116  N         10.8170   36.0440   18.1890 N.am   75  PHE75      -0.1973
    117  CA        10.0080   36.7530   17.2100 C.3    75  PHE75       0.1639
    118  C          9.7230   38.2350   17.4570 C.2    75  PHE75       0.2290
    119  O          9.1900   38.9190   16.5720 O.2    75  PHE75      -0.2864
    120  CB         8.7130   35.9790   17.0080 C.3    75  PHE75       0.0560
    121  CG         8.9330   34.5410   16.6110 C.ar   75  PHE75      -0.0200
    122  CD1        9.6850   34.2250   15.4730 C.ar   75  PHE75      -0.0042
    123  CD2        8.3790   33.5050   17.3540 C.ar   75  PHE75      -0.0042
    124  CE1        9.8730   32.9050   15.0810 C.ar   75  PHE75      -0.0003
    125  CE2        8.5600   32.1820   16.9720 C.ar   75  PHE75      -0.0003
    126  CZ         9.3090   31.8790   15.8300 C.ar   75  PHE75      -0.0000
    127  N         12.2570   40.3130   19.4480 N.3    77  THR77      -0.1218
    128  CA        13.4700   41.0420   19.8130 C.3    77  THR77       0.1862
    129  C         13.8940   42.0440   18.7380 C.2    77  THR77       0.2287
    130  O         13.7340   41.7930   17.5470 O.2    77  THR77      -0.2866
    131  CB        14.6580   40.0770   20.1200 C.3    77  THR77       0.1770
    132  OG1       15.8120   40.8450   20.4830 O.3    77  THR77      -0.2211
    133  CG2       15.0130   39.2140   18.9050 C.3    77  THR77       0.0375
    134  N         16.9420   43.1900   18.9620 N.3    79  LYS79      -0.1231
    135  CA        18.3860   42.9890   19.0520 C.3    79  LYS79       0.1693
    136  C         18.9190   42.2070   17.8570 C.2    79  LYS79       0.2592
    137  O         20.1200   42.0100   17.7160 O.2    79  LYS79      -0.2718
    138  CB        18.7610   42.3020   20.3710 C.3    79  LYS79       0.0285
    139  CG        18.5480   43.1930   21.5930 C.3    79  LYS79       0.0035
    140  CD        19.3380   44.4960   21.4490 C.3    79  LYS79       0.0206
    141  CE        18.8360   45.5990   22.3830 C.3    79  LYS79       0.1093
    142  NZ        19.0040   45.2770   23.8280 N.3    79  LYS79      -0.1314
    143  N         18.0110   41.7610   17.0000 N.am   80  ASP80      -0.1974
    144  CA        18.3730   41.0410   15.7940 C.3    80  ASP80       0.1709
    145  C         17.4920   41.5990   14.6840 C.2    80  ASP80       0.2293
    146  O         16.2630   41.5930   14.8060 O.2    80  ASP80      -0.2864
    147  CB        18.1110   39.5490   15.9550 C.3    80  ASP80       0.1436
    148  CG        18.2920   38.7920   14.6570 C.2    80  ASP80       0.3671
    149  OD1       17.3690   38.8250   13.8230 O.co2  80  ASP80      -0.2456
    150  OD2       19.3630   38.1860   14.4610 O.co2  80  ASP80      -0.2456
    151  N         16.5940   37.9870   11.2780 N.3    83  LYS83      -0.1231
    152  CA        15.5520   36.9740   11.3550 C.3    83  LYS83       0.1693
    153  C         14.4610   37.1580   12.4140 C.2    83  LYS83       0.2593
    154  O         13.5760   36.3060   12.5510 O.2    83  LYS83      -0.2718
    155  CB        16.1820   35.5840   11.4550 C.3    83  LYS83       0.0285
    156  CG        17.2760   35.4830   12.5030 C.3    83  LYS83       0.0035
    157  CD        18.0750   34.1960   12.3640 C.3    83  LYS83       0.0206
    158  CE        19.1750   34.1350   13.3960 C.3    83  LYS83       0.1093
    159  NZ        20.0320   35.3510   13.3530 N.3    83  LYS83      -0.1314
    160  N         14.5070   38.2570   13.1590 N.am   84  SER84      -0.1938
    161  CA        13.4660   38.5240   14.1490 C.3    84  SER84       0.2055
    162  C         12.3580   39.2730   13.4030 C.2    84  SER84       0.2643
    163  O         12.6350   40.2480   12.6940 O.2    84  SER84      -0.2714
    164  CB        14.0000   39.3950   15.2830 C.3    84  SER84       0.2130
    165  OG        12.9390   39.8480   16.1070 O.3    84  SER84      -0.2179
    166  N         11.1130   38.8330   13.5520 N.am   85  CYS85      -0.1967
    167  CA        10.0080   39.4820   12.8540 C.3    85  CYS85       0.1712
    168  C          9.9520   40.9850   13.1290 C.2    85  CYS85       0.2296
    169  O         10.1830   41.7900   12.2190 O.2    85  CYS85      -0.2864
    170  CB         8.6650   38.8410   13.2130 C.3    85  CYS85       0.0983
    171  SG         8.6210   37.0230   13.2420 S.3    85  CYS85      -0.0798
@<TRIPOS>BOND
     1    14    16   ar
     2    14    12   ar
     3    16    15   ar
     4    12    11    1
     5    12    13   ar
     6    11     8    1
     7    15    13   ar
     8     1     2    1
     9     6     5    1
    10    10     9    2
    11    45    44    2
    12     5     2    1
    13     7     8    1
    14     7     3   am
    15    44    43    1
    16     8     9    1
    17     2     3    1
    18     9    17   am
    19    49    50    1
    20     3     4    2
    21    17    18    1
    22    43    42    1
    23    43    46    1
    24    34    35    1
    25    47    46    1
    26    50    51    1
    27    50    53    1
    28    29    30    2
    29    29    28    1
    30    42    36   am
    31    18    19    1
    32    18    21    1
    33    19    20    2
    34    19    27   am
    35    46    48    1
    36    36    35    1
    37    36    37    2
    38    52    51    2
    39    27    28    1
    40    51    58   am
    41    53    54    1
    42    35    38    1
    43    21    22    1
    44    28    31    1
    45    58    59    1
    46    54    55    1
    47   151   152    1
    48   152   155    1
    49   152   153    1
    50   155   156    1
    51    32    31    1
    52    38    39    1
    53    59    62    1
    54    59    60    1
    55    31    33    1
    56    55    56   ar
    57    55    57   ar
    58    22    24   ar
    59    22    23   ar
    60   169   168    2
    61    39    41   ar
    62    39    40   ar
    63   157   156    1
    64   157   158    1
    65   153   154    2
    66   153   160   am
    67    69    68    1
    68    24    26   ar
    69    62    63    1
    70   163   162    2
    71    60    64   am
    72    60    61    2
    73   167   168    1
    74   167   170    1
    75   167   166    1
    76    23    25   ar
    77    64    65    1
    78   160   161    1
    79   170   171    1
    80   159   158    1
    81   162   166   am
    82   162   161    1
    83   149   148   ar
    84    26    25   ar
    85    65    68    1
    86    65    66    1
    87   161   164    1
    88   150   148   ar
    89   148   147    1
    90   145   146    2
    91   145   144    1
    92   124   122   ar
    93   124   126   ar
    94   164   165    1
    95    66    67    2
    96   122   121   ar
    97   144   147    1
    98   144   143    1
    99   126   125   ar
   100    79    78    1
   101   119   118    2
   102   121   120    1
   103   121   123   ar
   104   125   123   ar
   105   143   136   am
   106   120   117    1
   107    89    87   ar
   108    89    88   ar
   109   112   111    2
   110    87    85   ar
   111   117   118    1
   112   117   116    1
   113    78    75    1
   114   115   113    1
   115   130   129    2
   116   137   136    2
   117   136   135    1
   118   111   116   am
   119   111   110    1
   120    88    86   ar
   121    85    84    1
   122    85    86   ar
   123    75    74    1
   124    75    76    1
   125   129   128    1
   126   113   110    1
   127   113   114    1
   128    84    81    1
   129   133   131    1
   130   134   135    1
   131    80    76   am
   132    80    81    1
   133   135   138    1
   134   110   109    1
   135    74    72   am
   136   127   128    1
   137    76    77    2
   138    81    82    1
   139    83    82    2
   140   128   131    1
   141    72    73    2
   142    72    71    1
   143   131   132    1
   144   101   100    2
   145   138   139    1
   146   109   100   am
   147    70    71    1
   148   100    99    1
   149   107   106    1
   150    96    94    1
   151   140   139    1
   152   140   141    1
   153    93    92    2
   154   108   106    1
   155   106   105    2
   156   141   142    1
   157    99    98    1
   158    99   102    1
   159    92    91    1
   160    97    95    1
   161    94    95    1
   162    94    91    1
   163   103   102    1
   164   103   104    1
   165    91    90    1
   166   105   104    1
