@<TRIPOS>MOLECULE
tmp/1czjA03.pdb
 201 197 0 0 0
SMALL
GASTEIGER

@<TRIPOS>ATOM
      1  N          1.4140   30.2130   11.8650 N.3    10  MET10      -0.1230
      2  CA         2.1830   29.8780   13.0520 C.3    10  MET10       0.1702
      3  C          1.2450   29.9860   14.2470 C.2    10  MET10       0.2593
      4  O          0.4640   30.9370   14.3400 O.2    10  MET10      -0.2718
      5  CB         3.3590   30.8370   13.1830 C.3    10  MET10       0.0401
      6  CG         4.2760   30.7980   11.9760 C.3    10  MET10       0.0596
      7  SD         5.6210   31.9590   12.0730 S.3    10  MET10      -0.1393
      8  CE         6.7710   31.0640   13.0840 C.3    10  MET10       0.0692
      9  N          1.3150   29.0110   15.1490 N.am   11  SER11      -0.1939
     10  CA         0.4340   28.9820   16.3100 C.3    11  SER11       0.2040
     11  C          1.0980   28.5600   17.6240 C.2    11  SER11       0.2485
     12  O          2.0570   27.7870   17.6340 O.2    11  SER11      -0.2729
     13  CB        -0.7420   28.0510   16.0170 C.3    11  SER11       0.2129
     14  OG        -1.5600   27.8910   17.1590 O.3    11  SER11      -0.2179
     15  N          0.6030   29.0960   18.7520 N.am   12  PRO12      -0.2726
     16  CA         1.1250   28.7850   20.0840 C.3    12  PRO12       0.1402
     17  C          0.3900   27.5840   20.6790 C.2    12  PRO12       0.2269
     18  O          0.8300   27.0000   21.6690 O.2    12  PRO12      -0.2865
     19  CB         0.8240   30.0570   20.8610 C.3    12  PRO12       0.0296
     20  CG        -0.4810   30.4720   20.2870 C.3    12  PRO12       0.0237
     21  CD        -0.2920   30.2680   18.8060 C.3    12  PRO12       0.0939
     22  N         -0.2670   24.9430   27.8610 N.3    18  TYR18      -0.1241
     23  CA        -0.1390   26.3940   27.7890 C.3    18  TYR18       0.1605
     24  C         -1.4080   27.0330   27.2550 C.2    18  TYR18       0.2264
     25  O         -2.1570   26.4110   26.5030 O.2    18  TYR18      -0.2867
     26  CB         1.0310   26.7520   26.8750 C.3    18  TYR18       0.0534
     27  CG         1.1560   28.2170   26.5460 C.ar   18  TYR18      -0.0201
     28  CD1        1.7950   29.0910   27.4150 C.ar   18  TYR18      -0.0009
     29  CD2        0.6690   28.7200   25.3460 C.ar   18  TYR18      -0.0009
     30  CE1        1.9490   30.4290   27.0960 C.ar   18  TYR18       0.0417
     31  CE2        0.8190   30.0550   25.0200 C.ar   18  TYR18       0.0417
     32  CZ         1.4620   30.9040   25.8970 C.ar   18  TYR18       0.1957
     33  OH         1.6430   32.2260   25.5730 O.3    18  TYR18      -0.2866
     34  N         -2.5440   30.3020   25.1260 N.3    20  PRO20      -0.2102
     35  CA        -2.1670   31.4390   24.2820 C.3    20  PRO20       0.1504
     36  C         -2.8470   32.7410   24.6710 C.2    20  PRO20       0.2576
     37  O         -4.0480   32.7770   24.9340 O.2    20  PRO20      -0.2718
     38  CB        -2.5730   30.9750   22.8810 C.3    20  PRO20       0.0282
     39  CG        -3.6560   29.9730   23.1310 C.3    20  PRO20       0.0208
     40  CD        -3.1270   29.2210   24.3120 C.3    20  PRO20       0.0893
     41  N         -2.0620   33.8070   24.7340 N.am   21  LYS21      -0.1966
     42  CA        -2.5830   35.1160   25.0880 C.3    21  LYS21       0.1728
     43  C         -2.9200   35.9420   23.8510 C.2    21  LYS21       0.2616
     44  O         -3.7760   36.8330   23.8940 O.2    21  LYS21      -0.2715
     45  CB        -1.5790   35.8540   25.9750 C.3    21  LYS21       0.0311
     46  CG        -1.4430   35.2480   27.3680 C.3    21  LYS21       0.0038
     47  CD        -2.7780   35.2870   28.1150 C.3    21  LYS21       0.0206
     48  CE        -2.6990   34.5830   29.4590 C.3    21  LYS21       0.1093
     49  NZ        -2.3790   33.1400   29.3010 N.3    21  LYS21      -0.1314
     50  N         -2.2620   35.6240   22.7430 N.am   22  LYS22      -0.1963
     51  CA        -2.4770   36.3300   21.4910 C.3    22  LYS22       0.1728
     52  C         -2.9390   35.3570   20.4080 C.2    22  LYS22       0.2616
     53  O         -2.7720   34.1450   20.5450 O.2    22  LYS22      -0.2715
     54  CB        -1.1790   37.0080   21.0660 C.3    22  LYS22       0.0311
     55  CG        -1.3380   38.4640   20.6910 C.3    22  LYS22       0.0038
     56  CD        -1.6110   39.3180   21.9040 C.3    22  LYS22       0.0206
     57  CE        -1.9540   40.7290   21.4890 C.3    22  LYS22       0.1093
     58  NZ        -3.2260   40.7540   20.7260 N.3    22  LYS22      -0.1314
     59  N         -3.5480   35.8860   19.3510 N.am   23  GLY23      -0.1955
     60  CA        -4.0150   35.0410   18.2620 C.3    23  GLY23       0.1869
     61  C         -2.9080   34.5320   17.3450 C.2    23  GLY23       0.2309
     62  O         -1.7740   34.9970   17.4050 O.2    23  GLY23      -0.2863
     63  N         -0.5330   33.7120   14.0350 N.3    25  VAL25      -0.1245
     64  CA         0.1730   34.5630   13.0860 C.3    25  VAL25       0.1561
     65  C          0.2650   33.8680   11.7320 C.2    25  VAL25       0.2260
     66  O          0.5840   32.6830   11.6540 O.2    25  VAL25      -0.2867
     67  CB         1.6110   34.8580   13.5740 C.3    25  VAL25       0.0252
     68  CG1        2.3750   35.6590   12.5340 C.3    25  VAL25       0.0019
     69  CG2        1.5730   35.6010   14.8970 C.3    25  VAL25       0.0019
     70  N          9.9480   26.6460   15.7090 N.3    54  MET54      -0.1245
     71  CA         9.5370   26.1580   17.0170 C.3    54  MET54       0.1570
     72  C          9.6690   24.6470   17.2060 C.2    54  MET54       0.2261
     73  O          8.8680   24.0320   17.9150 O.2    54  MET54      -0.2867
     74  CB         8.1020   26.6240   17.2850 C.3    54  MET54       0.0387
     75  CG         7.9090   28.1190   17.0340 C.3    54  MET54       0.0595
     76  SD         6.2540   28.7240   17.3510 S.3    54  MET54      -0.1393
     77  CE         5.3740   28.0800   15.9340 C.3    54  MET54       0.0692
     78  N          8.2990   27.9650   25.8050 N.3    62  ILE62      -0.1245
     79  CA         7.1510   28.8320   26.0320 C.3    62  ILE62       0.1561
     80  C          7.0430   29.2970   27.4900 C.2    62  ILE62       0.2260
     81  O          6.4070   30.3120   27.7640 O.2    62  ILE62      -0.2867
     82  CB         5.8280   28.1410   25.5860 C.3    62  ILE62       0.0252
     83  CG1        4.7130   29.1710   25.4100 C.3    62  ILE62       0.0019
     84  CG2        5.4130   27.0700   26.5860 C.3    62  ILE62       0.0019
     85  CD1        4.9330   30.1330   24.2670 C.3    62  ILE62       0.0001
     86  N         10.8920   33.4680   29.0380 N.3    65  ARG65      -0.1245
     87  CA        10.7070   34.5030   28.0340 C.3    65  ARG65       0.1563
     88  C         11.9620   35.2210   27.5490 C.2    65  ARG65       0.2260
     89  O         12.0380   35.6300   26.3880 O.2    65  ARG65      -0.2867
     90  CB         9.6910   35.5100   28.5710 C.3    65  ARG65       0.0307
     91  CG         9.3570   36.6670   27.6610 C.3    65  ARG65       0.0489
     92  CD         8.0320   37.2470   28.0840 C.3    65  ARG65       0.2205
     93  NE         7.8170   38.5890   27.5640 N.pl3  65  ARG65      -0.0865
     94  CZ         6.6360   39.0540   27.1740 C.cat  65  ARG65       0.5346
     95  NH1        5.5590   38.2770   27.2330 N.pl3  65  ARG65       0.1354
     96  NH2        6.5250   40.3160   26.7720 N.pl3  65  ARG65       0.1354
     97  N          9.9790   31.4990   22.6680 N.3    71  VAL71      -0.1231
     98  CA         9.1490   31.8650   21.5340 C.3    71  VAL71       0.1692
     99  C          9.0140   33.3940   21.4830 C.2    71  VAL71       0.2592
    100  O          9.0680   33.9840   20.4060 O.2    71  VAL71      -0.2718
    101  CB         7.7360   31.2170   21.6330 C.3    71  VAL71       0.0266
    102  CG1        6.8350   31.7150   20.5110 C.3    71  VAL71       0.0020
    103  CG2        7.8390   29.7110   21.5690 C.3    71  VAL71       0.0020
    104  N          8.9050   34.0390   22.6440 N.am   72  TYR72      -0.1976
    105  CA         8.7480   35.4930   22.6770 C.3    72  TYR72       0.1639
    106  C          9.9620   36.2840   22.2230 C.2    72  TYR72       0.2290
    107  O          9.8560   37.1280   21.3360 O.2    72  TYR72      -0.2864
    108  CB         8.2910   35.9960   24.0560 C.3    72  TYR72       0.0560
    109  CG         7.7390   37.4040   23.9920 C.ar   72  TYR72      -0.0198
    110  CD1        6.3960   37.6300   23.6850 C.ar   72  TYR72      -0.0009
    111  CD2        8.5780   38.5130   24.1280 C.ar   72  TYR72      -0.0009
    112  CE1        5.9060   38.9200   23.5030 C.ar   72  TYR72       0.0417
    113  CE2        8.1000   39.8070   23.9440 C.ar   72  TYR72       0.0417
    114  CZ         6.7630   40.0040   23.6300 C.ar   72  TYR72       0.1957
    115  OH         6.2890   41.2840   23.4280 O.3    72  TYR72      -0.2866
    116  N         10.8170   36.0440   18.1890 N.3    75  PHE75      -0.1227
    117  CA        10.0080   36.7530   17.2100 C.3    75  PHE75       0.1736
    118  C          9.7230   38.2350   17.4570 C.2    75  PHE75       0.2595
    119  O          9.1900   38.9190   16.5720 O.2    75  PHE75      -0.2718
    120  CB         8.7130   35.9790   17.0080 C.3    75  PHE75       0.0547
    121  CG         8.9330   34.5410   16.6110 C.ar   75  PHE75      -0.0202
    122  CD1        9.6850   34.2250   15.4730 C.ar   75  PHE75      -0.0042
    123  CD2        8.3790   33.5050   17.3540 C.ar   75  PHE75      -0.0042
    124  CE1        9.8730   32.9050   15.0810 C.ar   75  PHE75      -0.0003
    125  CE2        8.5600   32.1820   16.9720 C.ar   75  PHE75      -0.0003
    126  CZ         9.3090   31.8790   15.8300 C.ar   75  PHE75      -0.0000
    127  N         10.1240   38.7490   18.6180 N.am   76  HIS76      -0.1975
    128  CA         9.8750   40.1530   18.9370 C.3    76  HIS76       0.1656
    129  C         11.1120   40.9630   19.3040 C.2    76  HIS76       0.2291
    130  O         11.0290   42.1760   19.4720 O.2    76  HIS76      -0.2864
    131  CB         8.8540   40.2710   20.0690 C.3    76  HIS76       0.0771
    132  CG         7.6540   39.4000   19.8930 C.ar   76  HIS76       0.0820
    133  ND1        7.5530   38.1220   20.3890 N.ar   76  HIS76      -0.2267
    134  CD2        6.4820   39.6390   19.2560 C.ar   76  HIS76       0.1154
    135  CE1        6.3590   37.6310   20.0480 C.ar   76  HIS76       0.1986
    136  NE2        5.6680   38.5140   19.3580 N.ar   76  HIS76      -0.2212
    137  N         11.1130   38.8330   13.5520 N.3    85  CYS85      -0.1221
    138  CA        10.0080   39.4820   12.8540 C.3    85  CYS85       0.1808
    139  C          9.9520   40.9850   13.1290 C.2    85  CYS85       0.2601
    140  O         10.1830   41.7900   12.2190 O.2    85  CYS85      -0.2717
    141  CB         8.6650   38.8410   13.2130 C.3    85  CYS85       0.0970
    142  SG         8.6210   37.0230   13.2420 S.3    85  CYS85      -0.0800
    143  N          9.7030   41.3740   14.3800 N.am   86  VAL86      -0.1979
    144  CA         9.6350   42.8030   14.6820 C.3    86  VAL86       0.1595
    145  C         11.0200   43.4260   14.5750 C.2    86  VAL86       0.2287
    146  O         11.1480   44.5910   14.2080 O.2    86  VAL86      -0.2864
    147  CB         8.9500   43.1360   16.0650 C.3    86  VAL86       0.0276
    148  CG1        8.0560   41.9980   16.5370 C.3    86  VAL86       0.0022
    149  CG2        9.9610   43.5430   17.1130 C.3    86  VAL86       0.0022
    150  N         11.3070   44.3170   10.8390 N.3    89  HIS89      -0.1241
    151  CA        10.2810   45.2990   10.5020 C.3    89  HIS89       0.1621
    152  C         10.6120   46.6870   11.0470 C.2    89  HIS89       0.2264
    153  O         10.3860   47.6920   10.3730 O.2    89  HIS89      -0.2867
    154  CB         8.9220   44.8480   11.0230 C.3    89  HIS89       0.0745
    155  CG         8.3340   43.6970   10.2700 C.ar   89  HIS89       0.0817
    156  ND1        7.0960   43.1630   10.5400 N.ar   89  HIS89      -0.2268
    157  CD2        8.8180   42.9890    9.2160 C.ar   89  HIS89       0.1154
    158  CE1        6.8670   42.1770    9.6670 C.ar   89  HIS89       0.1986
    159  NE2        7.8790   42.0260    8.8360 N.ar   89  HIS89      -0.2212
    160  N          4.4830   45.5580    9.4990 N.3   101  PRO101     -0.2102
    161  CA         3.7810   45.6090   10.7880 C.3   101  PRO101      0.1504
    162  C          4.5750   45.5150   12.0950 C.2   101  PRO101      0.2576
    163  O          5.4720   44.6830   12.2490 O.2   101  PRO101     -0.2718
    164  CB         2.7560   44.4740   10.6640 C.3   101  PRO101      0.0282
    165  CG         3.4190   43.5100    9.7540 C.3   101  PRO101      0.0208
    166  CD         4.0160   44.4100    8.7030 C.3   101  PRO101      0.0893
    167  N          4.2150   46.3860   13.0340 N.am  102  LEU102     -0.1966
    168  CA         4.8230   46.4130   14.3550 C.3   102  LEU102      0.1728
    169  C          3.7150   46.2040   15.3970 C.2   102  LEU102      0.2616
    170  O          3.9450   45.6060   16.4550 O.2   102  LEU102     -0.2715
    171  CB         5.5530   47.7360   14.6070 C.3   102  LEU102      0.0311
    172  CG         6.8840   47.9750   13.8890 C.3   102  LEU102      0.0022
    173  CD1        7.5320   49.2310   14.4390 C.3   102  LEU102      0.0001
    174  CD2        7.8160   46.8060   14.0920 C.3   102  LEU102      0.0001
    175  N          2.5120   46.6810   15.0810 N.am  103  ALA103     -0.1963
    176  CA         1.3680   46.5430   15.9740 C.3   103  ALA103      0.1728
    177  C          1.0680   45.0700   16.2270 C.2   103  ALA103      0.2616
    178  O          1.0200   44.2700   15.2930 O.2   103  ALA103     -0.2715
    179  CB         0.1560   47.2240   15.3720 C.3   103  ALA103      0.0334
    180  N          0.8140   44.7270   17.4840 N.am  104  CYS104     -0.1968
    181  CA         0.5340   43.3450   17.8540 C.3   104  CYS104      0.1712
    182  C         -0.5520   42.7150   16.9890 C.2   104  CYS104      0.2296
    183  O         -0.3420   41.6770   16.3660 O.2   104  CYS104     -0.2864
    184  CB         0.1250   43.2400   19.3330 C.3   104  CYS104      0.0983
    185  SG         1.0800   44.2310   20.5340 S.3   104  CYS104     -0.0798
    186  N         -0.1350   41.4990   13.2750 N.3   107  CYS107     -0.1221
    187  CA         0.5550   40.2410   13.0440 C.3   107  CYS107      0.1808
    188  C         -0.3050   39.1060   13.5870 C.2   107  CYS107      0.2601
    189  O         -0.5470   38.1200   12.8980 O.2   107  CYS107     -0.2717
    190  CB         1.9270   40.2350   13.7060 C.3   107  CYS107      0.0970
    191  SG         3.2810   40.1860   12.4910 S.3   107  CYS107     -0.0800
    192  N         -0.7580   39.2430   14.8280 N.am  108  HIS108     -0.1975
    193  CA        -1.6090   38.2360   15.4390 C.3   108  HIS108      0.1656
    194  C         -2.9990   38.5660   14.9540 C.2   108  HIS108      0.2291
    195  O         -3.5190   39.6400   15.2430 O.2   108  HIS108     -0.2864
    196  CB        -1.5300   38.3280   16.9600 C.3   108  HIS108      0.0771
    197  CG        -0.1800   37.9880   17.5060 C.ar  108  HIS108      0.0820
    198  ND1        0.2240   36.7110   17.8200 N.ar  108  HIS108     -0.2267
    199  CD2        0.8900   38.7830   17.7560 C.ar  108  HIS108      0.1154
    200  CE1        1.4860   36.7650   18.2310 C.ar  108  HIS108      0.1986
    201  NE2        1.9410   38.0000   18.2120 N.ar  108  HIS108     -0.2212
@<TRIPOS>BOND
     1   166   160    1
     2   166   165    1
     3   159   157   ar
     4   159   158   ar
     5   157   155   ar
     6   160   161    1
     7   158   156   ar
     8   165   164    1
     9   155   156   ar
    10   155   154    1
    11   153   152    2
    12   151   150    1
    13   151   154    1
    14   151   152    1
    15   164   161    1
    16   161   162    1
    17    66    65    2
    18    65    64    1
    19     1     2    1
    20     6     7    1
    21     6     5    1
    22     7     8    1
    23   162   163    2
    24   162   167   am
    25   140   139    2
    26   191   190    1
    27    68    67    1
    28   138   139    1
    29   138   141    1
    30   138   137    1
    31   189   188    2
    32   167   168    1
    33   187   186    1
    34   187   188    1
    35   187   190    1
    36     2     5    1
    37     2     3    1
    38    64    67    1
    39    64    63    1
    40   139   143   am
    41   141   142    1
    42    67    69    1
    43   188   192   am
    44   172   174    1
    45   172   173    1
    46   172   171    1
    47   146   145    2
    48     3     4    2
    49     3     9   am
    50   168   171    1
    51   168   169    1
    52   143   144    1
    53   145   144    1
    54   144   147    1
    55   192   193    1
    56   194   195    2
    57   194   193    1
    58   124   122   ar
    59   124   126   ar
    60   175   169   am
    61   175   176    1
    62     9    10    1
    63   178   177    2
    64   179   176    1
    65   169   170    2
    66   193   196    1
    67   122   121   ar
    68    70    71    1
    69   126   125   ar
    70    77    76    1
    71   176   177    1
    72    13    10    1
    73    13    14    1
    74   147   148    1
    75   147   149    1
    76   177   180   am
    77    10    11    1
    78   183   182    2
    79   119   118    2
    80   121   120    1
    81   121   123   ar
    82   196   197    1
    83   125   123   ar
    84   182   181    1
    85   120   117    1
    86    71    72    1
    87    71    74    1
    88    75    74    1
    89    75    76    1
    90    72    73    2
    91   117   118    1
    92   117   116    1
    93    61    62    2
    94    61    60    1
    95   118   127   am
    96   180   181    1
    97   197   199   ar
    98   197   198   ar
    99    11    12    2
   100    11    15   am
   101   199   201   ar
   102   198   200   ar
   103   181   184    1
   104   201   200   ar
   105    60    59    1
   106   127   128    1
   107    15    21    1
   108    15    16    1
   109    21    20    1
   110   128   129    1
   111   128   131    1
   112   134   136   ar
   113   134   132   ar
   114   129   130    2
   115   184   185    1
   116    59    52   am
   117   136   135   ar
   118   132   131    1
   119   132   133   ar
   120   135   133   ar
   121    16    17    1
   122    16    19    1
   123    20    19    1
   124   100    99    2
   125    52    53    2
   126    52    51    1
   127   102   101    1
   128    17    18    2
   129    55    54    1
   130    55    56    1
   131    58    57    1
   132    54    51    1
   133   107   106    2
   134    99    98    1
   135    99   104   am
   136    57    56    1
   137    51    50    1
   138    98   101    1
   139    98    97    1
   140   103   101    1
   141   106   105    1
   142   104   105    1
   143   105   108    1
   144    50    43   am
   145    38    39    1
   146    38    35    1
   147    39    40    1
   148   115   114    1
   149   112   114   ar
   150   112   110   ar
   151   114   113   ar
   152   110   109   ar
   153    43    44    2
   154    43    42    1
   155   113   111   ar
   156   109   108    1
   157   109   111   ar
   158    85    83    1
   159    35    36    1
   160    35    34    1
   161    40    34    1
   162    36    41   am
   163    36    37    2
   164    41    42    1
   165    31    29   ar
   166    31    32   ar
   167    42    45    1
   168    29    27   ar
   169    83    82    1
   170    33    32    1
   171    82    79    1
   172    82    84    1
   173    78    79    1
   174    32    30   ar
   175    45    46    1
   176    79    80    1
   177    89    88    2
   178    25    24    2
   179    27    26    1
   180    27    28   ar
   181    96    94    1
   182    26    23    1
   183    30    28   ar
   184    94    95    1
   185    94    93    2
   186    24    23    1
   187    46    47    1
   188    80    81    2
   189    88    87    1
   190    93    92    1
   191    91    92    1
   192    91    90    1
   193    23    22    1
   194    87    90    1
   195    87    86    1
   196    47    48    1
   197    49    48    1
