@<TRIPOS>MOLECULE
tmp/1czjA02.pdb
 195 188 0 0 0
SMALL
GASTEIGER

@<TRIPOS>ATOM
      1  N          1.4140   30.2130   11.8650 N.3    10  MET10      -0.1245
      2  CA         2.1830   29.8780   13.0520 C.3    10  MET10       0.1570
      3  C          1.2450   29.9860   14.2470 C.2    10  MET10       0.2261
      4  O          0.4640   30.9370   14.3400 O.2    10  MET10      -0.2867
      5  CB         3.3590   30.8370   13.1830 C.3    10  MET10       0.0387
      6  CG         4.2760   30.7980   11.9760 C.3    10  MET10       0.0595
      7  SD         5.6210   31.9590   12.0730 S.3    10  MET10      -0.1393
      8  CE         6.7710   31.0640   13.0840 C.3    10  MET10       0.0692
      9  N         -0.5330   33.7120   14.0350 N.3    25  VAL25      -0.1231
     10  CA         0.1730   34.5630   13.0860 C.3    25  VAL25       0.1692
     11  C          0.2650   33.8680   11.7320 C.2    25  VAL25       0.2593
     12  O          0.5840   32.6830   11.6540 O.2    25  VAL25      -0.2718
     13  CB         1.6110   34.8580   13.5740 C.3    25  VAL25       0.0266
     14  CG1        2.3750   35.6590   12.5340 C.3    25  VAL25       0.0020
     15  CG2        1.5730   35.6010   14.8970 C.3    25  VAL25       0.0020
     16  N         -0.0270   34.6040   10.6680 N.am   26  THR26      -0.1939
     17  CA         0.0500   34.0610    9.3190 C.3    26  THR26       0.2028
     18  C          1.2840   34.6330    8.6210 C.2    26  THR26       0.2642
     19  O          1.4050   35.8500    8.4510 O.2    26  THR26      -0.2714
     20  CB        -1.2110   34.4200    8.4940 C.3    26  THR26       0.1808
     21  OG1       -2.3690   33.8230    9.0940 O.3    26  THR26      -0.2208
     22  CG2       -1.0720   33.9160    7.0560 C.3    26  THR26       0.0379
     23  N          2.2240   33.7630    8.2760 N.am   27  PHE27      -0.1959
     24  CA         3.4330   34.1900    7.5870 C.3    27  PHE27       0.1771
     25  C          3.2870   33.9220    6.0930 C.2    27  PHE27       0.2619
     26  O          2.8100   32.8630    5.6860 O.2    27  PHE27      -0.2715
     27  CB         4.6670   33.4690    8.1360 C.3    27  PHE27       0.0574
     28  CG         5.9320   33.8310    7.4230 C.ar   27  PHE27      -0.0200
     29  CD1        6.5020   35.0870    7.5870 C.ar   27  PHE27      -0.0042
     30  CD2        6.5120   32.9470    6.5330 C.ar   27  PHE27      -0.0042
     31  CE1        7.6270   35.4650    6.8660 C.ar   27  PHE27      -0.0003
     32  CE2        7.6410   33.3130    5.8040 C.ar   27  PHE27      -0.0003
     33  CZ         8.1970   34.5780    5.9720 C.ar   27  PHE27      -0.0000
     34  N          3.6690   34.8980    5.2780 N.am   28  ASN28      -0.1972
     35  CA         3.5860   34.7650    3.8340 C.3    28  ASN28       0.1688
     36  C          4.9630   34.9330    3.2410 C.2    28  ASN28       0.2292
     37  O          5.6130   35.9460    3.4680 O.2    28  ASN28      -0.2864
     38  CB         2.6560   35.8310    3.2450 C.3    28  ASN28       0.1181
     39  CG         1.2010   35.6390    3.6520 C.2    28  ASN28       0.2629
     40  OD1        0.4900   34.8000    3.0890 O.2    28  ASN28      -0.2716
     41  ND2        0.7450   36.4300    4.6200 N.am   28  ASN28      -0.0877
     42  N          5.7370   38.0670    0.2380 N.3    31  SER31      -0.1202
     43  CA         6.1790   39.3970    0.6320 C.3    31  SER31       0.2020
     44  C          7.6200   39.4200    1.1390 C.2    31  SER31       0.2618
     45  O          8.2390   40.4780    1.2110 O.2    31  SER31      -0.2717
     46  CB         5.2290   39.9690    1.6830 C.3    31  SER31       0.2103
     47  OG         4.7930   38.9420    2.5560 O.3    31  SER31      -0.2182
     48  N          8.1690   38.2430    1.4200 N.am   32  HIS32      -0.1975
     49  CA         9.5320   38.1240    1.9270 C.3    32  HIS32       0.1656
     50  C         10.4670   37.4570    0.9210 C.2    32  HIS32       0.2291
     51  O         11.6370   37.2100    1.2190 O.2    32  HIS32      -0.2864
     52  CB         9.5140   37.3110    3.2300 C.3    32  HIS32       0.0771
     53  CG         8.6770   37.9250    4.3100 C.ar   32  HIS32       0.0820
     54  ND1        7.3290   37.7030    4.4680 N.ar   32  HIS32      -0.2267
     55  CD2        9.0150   38.8150    5.2770 C.ar   32  HIS32       0.1154
     56  CE1        6.9010   38.4520    5.4950 C.ar   32  HIS32       0.1986
     57  NE2        7.8910   39.1490    6.0210 N.ar   32  HIS32      -0.2212
     58  N         14.3750   38.1210    0.4010 N.3    35  ILE35      -0.1245
     59  CA        15.3540   37.8320    1.4410 C.3    35  ILE35       0.1561
     60  C         15.8530   36.4110    1.2590 C.2    35  ILE35       0.2260
     61  O         15.0710   35.5130    0.9450 O.2    35  ILE35      -0.2867
     62  CB        14.7330   38.0340    2.8540 C.3    35  ILE35       0.0252
     63  CG1       14.2160   39.4710    2.9850 C.3    35  ILE35       0.0019
     64  CG2       15.7550   37.7490    3.9440 C.3    35  ILE35       0.0019
     65  CD1       13.0360   39.6230    3.9060 C.3    35  ILE35       0.0001
     66  N         18.7320   33.2000    5.4530 N.3    39  GLN39      -0.1231
     67  CA        18.8300   34.3150    6.3940 C.3    39  GLN39       0.1698
     68  C         17.8500   34.0820    7.5460 C.2    39  GLN39       0.2592
     69  O         18.1750   34.3410    8.7100 O.2    39  GLN39      -0.2718
     70  CB        18.5250   35.6590    5.7330 C.3    39  GLN39       0.0381
     71  CG        18.6400   36.8290    6.7080 C.3    39  GLN39       0.0905
     72  CD        18.6270   38.1790    6.0230 C.2    39  GLN39       0.2608
     73  OE1       19.4040   38.4230    5.1020 O.2    39  GLN39      -0.2717
     74  NE2       17.7520   39.0670    6.4770 N.am   39  GLN39      -0.0878
     75  N         16.6400   33.6370    7.2110 N.am   40  CYS40      -0.1970
     76  CA        15.6320   33.3520    8.2270 C.3    40  CYS40       0.1712
     77  C         15.8390   31.9270    8.7060 C.2    40  CYS40       0.2296
     78  O         15.9040   31.6780    9.9080 O.2    40  CYS40      -0.2864
     79  CB        14.2130   33.5060    7.6700 C.3    40  CYS40       0.0983
     80  SG        13.7510   35.2240    7.2760 S.3    40  CYS40      -0.0798
     81  N         10.5410   26.8880   13.1030 N.3    53  CYS53      -0.1235
     82  CA        11.4210   27.5840   14.0510 C.3    53  CYS53       0.1677
     83  C         11.1830   27.0570   15.4580 C.2    53  CYS53       0.2270
     84  O         12.0920   27.0050   16.2860 O.2    53  CYS53      -0.2867
     85  CB        11.1500   29.0880   14.0860 C.3    53  CYS53       0.0956
     86  SG        10.9330   29.9400   12.5010 S.3    53  CYS53      -0.0801
     87  N         10.8170   36.0440   18.1890 N.3    75  PHE75      -0.1241
     88  CA        10.0080   36.7530   17.2100 C.3    75  PHE75       0.1605
     89  C          9.7230   38.2350   17.4570 C.2    75  PHE75       0.2264
     90  O          9.1900   38.9190   16.5720 O.2    75  PHE75      -0.2867
     91  CB         8.7130   35.9790   17.0080 C.3    75  PHE75       0.0534
     92  CG         8.9330   34.5410   16.6110 C.ar   75  PHE75      -0.0203
     93  CD1        9.6850   34.2250   15.4730 C.ar   75  PHE75      -0.0042
     94  CD2        8.3790   33.5050   17.3540 C.ar   75  PHE75      -0.0042
     95  CE1        9.8730   32.9050   15.0810 C.ar   75  PHE75      -0.0003
     96  CE2        8.5600   32.1820   16.9720 C.ar   75  PHE75      -0.0003
     97  CZ         9.3090   31.8790   15.8300 C.ar   75  PHE75      -0.0000
     98  N         18.1050   42.0630   13.6000 N.3    81  SER81      -0.1202
     99  CA        17.3420   42.6240   12.4900 C.3    81  SER81       0.2020
    100  C         17.3220   41.7440   11.2450 C.2    81  SER81       0.2619
    101  O         16.7340   42.1210   10.2310 O.2    81  SER81      -0.2717
    102  CB        17.8610   44.0160   12.1430 C.3    81  SER81       0.2103
    103  OG        19.2640   43.9860   11.9520 O.3    81  SER81      -0.2182
    104  N         17.9380   40.5650   11.3310 N.am   82  GLU82      -0.1965
    105  CA        17.9830   39.6500   10.1960 C.3    82  GLU82       0.1733
    106  C         16.8500   38.6480   10.1510 C.2    82  GLU82       0.2616
    107  O         16.2390   38.4580    9.1050 O.2    82  GLU82      -0.2715
    108  CB        19.3020   38.8950   10.1620 C.3    82  GLU82       0.0429
    109  CG        20.4900   39.7830    9.9230 C.3    82  GLU82       0.1163
    110  CD        21.6760   39.0290    9.3510 C.2    82  GLU82       0.3649
    111  OE1       21.9250   37.8710    9.7710 O.co2  82  GLU82      -0.2457
    112  OE2       22.3570   39.6040    8.4690 O.co2  82  GLU82      -0.2457
    113  N         16.5940   37.9870   11.2780 N.am   83  LYS83      -0.1963
    114  CA        15.5520   36.9740   11.3550 C.3    83  LYS83       0.1728
    115  C         14.4610   37.1580   12.4140 C.2    83  LYS83       0.2617
    116  O         13.5760   36.3060   12.5510 O.2    83  LYS83      -0.2715
    117  CB        16.1820   35.5840   11.4550 C.3    83  LYS83       0.0311
    118  CG        17.2760   35.4830   12.5030 C.3    83  LYS83       0.0038
    119  CD        18.0750   34.1960   12.3640 C.3    83  LYS83       0.0206
    120  CE        19.1750   34.1350   13.3960 C.3    83  LYS83       0.1093
    121  NZ        20.0320   35.3510   13.3530 N.3    83  LYS83      -0.1314
    122  N         14.5070   38.2570   13.1590 N.am   84  SER84      -0.1936
    123  CA        13.4660   38.5240   14.1490 C.3    84  SER84       0.2055
    124  C         12.3580   39.2730   13.4030 C.2    84  SER84       0.2643
    125  O         12.6350   40.2480   12.6940 O.2    84  SER84      -0.2714
    126  CB        14.0000   39.3950   15.2830 C.3    84  SER84       0.2130
    127  OG        12.9390   39.8480   16.1070 O.3    84  SER84      -0.2179
    128  N         11.1130   38.8330   13.5520 N.am   85  CYS85      -0.1967
    129  CA        10.0080   39.4820   12.8540 C.3    85  CYS85       0.1712
    130  C          9.9520   40.9850   13.1290 C.2    85  CYS85       0.2296
    131  O         10.1830   41.7900   12.2190 O.2    85  CYS85      -0.2864
    132  CB         8.6650   38.8410   13.2130 C.3    85  CYS85       0.0983
    133  SG         8.6210   37.0230   13.2420 S.3    85  CYS85      -0.0798
    134  N         13.3270   42.9620   12.3000 N.3    88  CYS88      -0.1221
    135  CA        13.5650   43.4300   10.9380 C.3    88  CYS88       0.1808
    136  C         12.5860   44.5240   10.5470 C.2    88  CYS88       0.2601
    137  O         12.9880   45.5470   10.0020 O.2    88  CYS88      -0.2717
    138  CB        13.4850   42.2940    9.9110 C.3    88  CYS88       0.0970
    139  SG        13.6380   42.8970    8.1810 S.3    88  CYS88      -0.0800
    140  N         11.3070   44.3170   10.8390 N.am   89  HIS89      -0.1975
    141  CA        10.2810   45.2990   10.5020 C.3    89  HIS89       0.1656
    142  C         10.6120   46.6870   11.0470 C.2    89  HIS89       0.2291
    143  O         10.3860   47.6920   10.3730 O.2    89  HIS89      -0.2864
    144  CB         8.9220   44.8480   11.0230 C.3    89  HIS89       0.0771
    145  CG         8.3340   43.6970   10.2700 C.ar   89  HIS89       0.0820
    146  ND1        7.0960   43.1630   10.5400 N.ar   89  HIS89      -0.2267
    147  CD2        8.8180   42.9890    9.2160 C.ar   89  HIS89       0.1154
    148  CE1        6.8670   42.1770    9.6670 C.ar   89  HIS89       0.1986
    149  NE2        7.8790   42.0260    8.8360 N.ar   89  HIS89      -0.2212
    150  N         13.5140   48.3060    9.0290 N.3    92  LEU92      -0.1245
    151  CA        13.1010   48.8160    7.7270 C.3    92  LEU92       0.1561
    152  C         12.6600   50.2780    7.8130 C.2    92  LEU92       0.2260
    153  O         12.9450   51.0700    6.9190 O.2    92  LEU92      -0.2867
    154  CB        11.9680   47.9620    7.1520 C.3    92  LEU92       0.0270
    155  CG        12.2700   46.4860    6.8850 C.3    92  LEU92       0.0019
    156  CD1       11.0180   45.7960    6.3980 C.3    92  LEU92       0.0001
    157  CD2       13.3910   46.3420    5.8740 C.3    92  LEU92       0.0001
    158  N          8.0960   52.4480    5.7360 N.3    98  SER98      -0.1202
    159  CA         7.8120   51.0240    5.5980 C.3    98  SER98       0.2020
    160  C          6.4630   50.6470    6.2000 C.2    98  SER98       0.2619
    161  O          5.9930   51.2660    7.1580 O.2    98  SER98      -0.2717
    162  CB         8.9220   50.1850    6.2330 C.3    98  SER98       0.2103
    163  OG         8.7020   48.8010    5.9960 O.3    98  SER98      -0.2182
    164  N          5.8340   49.6390    5.6100 N.am   99  ASP99      -0.1959
    165  CA         4.5440   49.1600    6.0740 C.3    99  ASP99       0.1840
    166  C          4.6460   47.8340    6.8090 C.2    99  ASP99       0.2622
    167  O          3.6310   47.2530    7.1960 O.2    99  ASP99      -0.2715
    168  CB         3.5610   49.0530    4.9100 C.3    99  ASP99       0.1450
    169  CG         2.9830   50.3940    4.5290 C.2    99  ASP99       0.3671
    170  OD1        3.7270   51.2240    3.9640 O.co2  99  ASP99      -0.2456
    171  OD2        1.7910   50.6260    4.8240 O.co2  99  ASP99      -0.2456
    172  N          5.8710   47.3560    6.9990 N.am  100  ALA100     -0.1964
    173  CA         6.0880   46.1120    7.7190 C.3   100  ALA100      0.1713
    174  C          5.5180   46.3280    9.1380 C.2   100  ALA100      0.2458
    175  O          5.9950   47.1790    9.9010 O.2   100  ALA100     -0.2730
    176  CB         7.5660   45.7950    7.7530 C.3   100  ALA100      0.0333
    177  N          4.4830   45.5580    9.4990 N.am  101  PRO101     -0.2727
    178  CA         3.7810   45.6090   10.7880 C.3   101  PRO101      0.1402
    179  C          4.5750   45.5150   12.0950 C.2   101  PRO101      0.2269
    180  O          5.4720   44.6830   12.2490 O.2   101  PRO101     -0.2865
    181  CB         2.7560   44.4740   10.6640 C.3   101  PRO101      0.0296
    182  CG         3.4190   43.5100    9.7540 C.3   101  PRO101      0.0237
    183  CD         4.0160   44.4100    8.7030 C.3   101  PRO101      0.0939
    184  N         -1.5760   43.4130   14.1290 N.3   106  SER106     -0.1202
    185  CA        -1.3630   43.5090   12.6920 C.3   106  SER106      0.2020
    186  C         -0.6300   42.2310   12.2800 C.2   106  SER106      0.2619
    187  O         -0.4940   41.9310   11.0960 O.2   106  SER106     -0.2717
    188  CB        -0.5430   44.7510   12.3430 C.3   106  SER106      0.2103
    189  OG        -1.1960   45.9280   12.8010 O.3   106  SER106     -0.2182
    190  N         -0.1350   41.4990   13.2750 N.am  107  CYS107     -0.1969
    191  CA         0.5550   40.2410   13.0440 C.3   107  CYS107      0.1712
    192  C         -0.3050   39.1060   13.5870 C.2   107  CYS107      0.2296
    193  O         -0.5470   38.1200   12.8980 O.2   107  CYS107     -0.2864
    194  CB         1.9270   40.2350   13.7060 C.3   107  CYS107      0.0983
    195  SG         3.2810   40.1860   12.4910 S.3   107  CYS107     -0.0798
@<TRIPOS>BOND
     1    42    43    1
     2    58    59    1
     3    43    44    1
     4    43    46    1
     5    50    51    2
     6    50    49    1
     7    61    60    2
     8    44    45    2
     9    44    48   am
    10    60    59    1
    11    48    49    1
    12    59    62    1
    13    46    47    1
    14    49    52    1
    15    62    63    1
    16    62    64    1
    17    63    65    1
    18    40    39    2
    19    52    53    1
    20    36    37    2
    21    36    35    1
    22    38    39    1
    23    38    35    1
    24    39    41   am
    25    35    34    1
    26   170   169   ar
    27    53    54   ar
    28    53    55   ar
    29    54    56   ar
    30   169   171   ar
    31   169   168    1
    32   168   165    1
    33    73    72    2
    34    55    57   ar
    35    34    25   am
    36    66    67    1
    37    56    57   ar
    38   159   158    1
    39   159   160    1
    40   159   162    1
    41   164   165    1
    42   164   160   am
    43    26    25    2
    44    70    67    1
    45    70    71    1
    46    32    33   ar
    47    32    30   ar
    48   157   155    1
    49    33    31   ar
    50   163   162    1
    51    72    74   am
    52    72    71    1
    53   165   166    1
    54    25    24    1
    55   160   161    2
    56    67    68    1
    57   156   155    1
    58    30    28   ar
    59   166   172   am
    60   166   167    2
    61    31    29   ar
    62   155   154    1
    63   153   152    2
    64   172   173    1
    65    22    20    1
    66   154   151    1
    67    75    68   am
    68    75    76    1
    69    80    79    1
    70    28    29   ar
    71    28    27    1
    72    68    69    2
    73    24    27    1
    74    24    23    1
    75    79    76    1
    76   173   176    1
    77   173   174    1
    78   151   152    1
    79   151   150    1
    80   139   138    1
    81    76    77    1
    82    23    18   am
    83    19    18    2
    84   112   110   ar
    85    20    21    1
    86    20    17    1
    87    18    17    1
    88   183   177    1
    89   183   182    1
    90    77    78    2
    91   149   147   ar
    92   149   148   ar
    93   107   106    2
    94   174   177   am
    95   174   175    2
    96   147   145   ar
    97    17    16    1
    98   110   111   ar
    99   110   109    1
   100   177   178    1
   101   148   146   ar
   102   182   181    1
   103   138   135    1
   104   109   108    1
   105   137   136    2
   106   106   105    1
   107   106   113   am
   108   108   105    1
   109   105   104    1
   110   101   100    2
   111   145   146   ar
   112   145   144    1
   113   143   142    2
   114   141   140    1
   115   141   144    1
   116   141   142    1
   117   136   140   am
   118   136   135    1
   119   181   178    1
   120    16    11   am
   121   178   179    1
   122   135   134    1
   123   187   186    2
   124   100   104   am
   125   100    99    1
   126   113   114    1
   127   114   117    1
   128   114   115    1
   129   117   118    1
   130    12    11    2
   131    11    10    1
   132     1     2    1
   133   103   102    1
   134     6     7    1
   135     6     5    1
   136     7     8    1
   137   179   180    2
   138   102    99    1
   139   131   130    2
   140   186   185    1
   141   186   190   am
   142   188   185    1
   143   188   189    1
   144   119   118    1
   145   119   120    1
   146   115   116    2
   147   115   122   am
   148    99    98    1
   149   195   194    1
   150    86    85    1
   151    14    13    1
   152   185   184    1
   153   125   124    2
   154   129   130    1
   155   129   132    1
   156   129   128    1
   157   193   192    2
   158   191   190    1
   159   191   192    1
   160   191   194    1
   161     2     5    1
   162     2     3    1
   163    10    13    1
   164    10     9    1
   165    81    82    1
   166   122   123    1
   167   132   133    1
   168   121   120    1
   169   124   128   am
   170   124   123    1
   171    13    15    1
   172    82    85    1
   173    82    83    1
   174   123   126    1
   175     3     4    2
   176    95    93   ar
   177    95    97   ar
   178   126   127    1
   179    83    84    2
   180    93    92   ar
   181    97    96   ar
   182    90    89    2
   183    92    91    1
   184    92    94   ar
   185    96    94   ar
   186    91    88    1
   187    88    89    1
   188    88    87    1
