@<TRIPOS>MOLECULE
tmp/1czmA00.pdb
 148 146 0 0 0
SMALL
GASTEIGER

@<TRIPOS>ATOM
      1  N         42.7590    9.7320  -19.7410 N.3    67  HIS67      -0.1241
      2  CA        41.3980    9.1830  -19.4080 C.3    67  HIS67       0.1621
      3  C         41.3950    7.6590  -19.3950 C.2    67  HIS67       0.2264
      4  O         42.0540    7.0550  -20.2600 O.2    67  HIS67      -0.2867
      5  CB        40.3610    9.5150  -20.5030 C.3    67  HIS67       0.0745
      6  CG        40.0760   10.9480  -20.7210 C.ar   67  HIS67       0.0817
      7  ND1       39.5000   11.4850  -21.8210 N.ar   67  HIS67      -0.2268
      8  CD2       40.3500   12.0190  -19.8810 C.ar   67  HIS67       0.1154
      9  CE1       39.4310   12.7980  -21.6820 C.ar   67  HIS67       0.1986
     10  NE2       39.9380   13.1530  -20.5330 N.ar   67  HIS67      -0.2212
     11  N         31.2460    6.0770  -17.9220 N.3    91  PHE91      -0.1227
     12  CA        31.9520    6.1170  -19.1990 C.3    91  PHE91       0.1736
     13  C         33.4120    6.4880  -18.9160 C.2    91  PHE91       0.2595
     14  O         34.2580    6.1550  -19.7680 O.2    91  PHE91      -0.2718
     15  CB        31.2430    6.9710  -20.2280 C.3    91  PHE91       0.0547
     16  CG        31.3090    8.4670  -20.0700 C.ar   91  PHE91      -0.0202
     17  CD1       30.3300    9.1200  -19.2950 C.ar   91  PHE91      -0.0042
     18  CD2       32.2750    9.2260  -20.6620 C.ar   91  PHE91      -0.0042
     19  CE1       30.3420   10.4840  -19.0950 C.ar   91  PHE91      -0.0003
     20  CE2       32.3020   10.6360  -20.5230 C.ar   91  PHE91      -0.0003
     21  CZ        31.3240   11.2510  -19.7170 C.ar   91  PHE91      -0.0000
     22  N         33.7760    7.1040  -17.7910 N.am   92  GLN92      -0.1979
     23  CA        35.2050    7.4280  -17.6500 C.3    92  GLN92       0.1601
     24  C         35.5940    7.9470  -16.2850 C.2    92  GLN92       0.2287
     25  O         34.6850    8.3850  -15.5580 O.2    92  GLN92      -0.2864
     26  CB        35.4440    8.5260  -18.7430 C.3    92  GLN92       0.0394
     27  CG        36.7210    9.2710  -18.6440 C.3    92  GLN92       0.0908
     28  CD        36.6730   10.6410  -19.2640 C.2    92  GLN92       0.2608
     29  OE1       36.5360   11.6620  -18.6370 O.2    92  GLN92      -0.2717
     30  NE2       36.7470   10.6640  -20.5910 N.am   92  GLN92      -0.0878
     31  N         39.1310   10.2910  -14.5210 N.3    94  HIS94      -0.1241
     32  CA        40.3350   11.0810  -14.8510 C.3    94  HIS94       0.1621
     33  C         40.6980   11.9400  -13.6070 C.2    94  HIS94       0.2264
     34  O         39.9150   11.9570  -12.6400 O.2    94  HIS94      -0.2867
     35  CB        40.2480   11.9650  -16.1090 C.3    94  HIS94       0.0745
     36  CG        39.2210   13.0190  -16.0410 C.ar   94  HIS94       0.0817
     37  ND1       37.9980   12.9090  -16.6560 N.ar   94  HIS94      -0.2268
     38  CD2       39.2150   14.2060  -15.3650 C.ar   94  HIS94       0.1154
     39  CE1       37.2600   13.9940  -16.3940 C.ar   94  HIS94       0.1986
     40  NE2       37.9450   14.7890  -15.6170 N.ar   94  HIS94      -0.2212
     41  N         42.7520   15.7180  -11.9770 N.3    96  HIS96      -0.1297
     42  CA        43.1740   17.1060  -12.1590 C.3    96  HIS96       0.1306
     43  C         44.3050   17.3400  -11.1500 C.3    96  HIS96       0.2013
     44  O         44.1560   16.7700  -10.0620 O.3    96  HIS96      -0.2188
     45  CB        42.1320   18.2360  -11.9730 C.3    96  HIS96       0.0691
     46  CG        41.1170   18.1000  -13.0730 C.ar   96  HIS96       0.0814
     47  ND1       41.0760   18.7990  -14.2010 N.ar   96  HIS96      -0.2268
     48  CD2       40.0650   17.2530  -13.1150 C.ar   96  HIS96       0.1154
     49  CE1       40.0160   18.4260  -14.9530 C.ar   96  HIS96       0.1986
     50  NE2       39.3970   17.4690  -14.2790 N.ar   96  HIS96      -0.2212
     51  N         37.7810   12.5910  -10.8870 N.3   119  HIS119     -0.1241
     52  CA        36.4410   12.8650  -11.4700 C.3   119  HIS119      0.1621
     53  C         35.9720   11.5390  -12.0850 C.2   119  HIS119      0.2264
     54  O         36.7520   11.0230  -12.8770 O.2   119  HIS119     -0.2867
     55  CB        36.3970   13.9530  -12.5450 C.3   119  HIS119      0.0745
     56  CG        36.5300   15.3660  -12.1000 C.ar  119  HIS119      0.0817
     57  ND1       36.8550   16.4230  -12.9000 N.ar  119  HIS119     -0.2268
     58  CD2       36.3260   15.9000  -10.8260 C.ar  119  HIS119      0.1154
     59  CE1       36.8670   17.5180  -12.1720 C.ar  119  HIS119      0.1986
     60  NE2       36.5840   17.2510  -10.9210 N.ar  119  HIS119     -0.2212
     61  N         32.8200   10.3140  -14.1350 N.3   121  ALA121     -0.1245
     62  CA        31.7720   10.7930  -15.0090 C.3   121  ALA121      0.1562
     63  C         30.8660    9.7240  -15.5360 C.2   121  ALA121      0.2260
     64  O         31.3250    8.6270  -15.8820 O.2   121  ALA121     -0.2867
     65  CB        32.5320   11.4730  -16.2270 C.3   121  ALA121      0.0290
     66  N         26.1450    9.4410  -25.3220 N.3   131  LEU131     -0.1245
     67  CA        26.8580   10.4320  -24.4820 C.3   131  LEU131      0.1561
     68  C         26.8430   11.8210  -25.1400 C.2   131  LEU131      0.2260
     69  O         26.6630   12.8450  -24.4880 O.2   131  LEU131     -0.2867
     70  CB        28.2870    9.9270  -24.2550 C.3   131  LEU131      0.0270
     71  CG        29.2910   10.9400  -23.7190 C.3   131  LEU131      0.0019
     72  CD1       28.9730   11.3670  -22.3120 C.3   131  LEU131      0.0001
     73  CD2       30.6640   10.2810  -23.7770 C.3   131  LEU131      0.0001
     74  N         24.7980   14.7790  -17.7250 N.3   141  LEU141     -0.1245
     75  CA        25.9310   14.1300  -17.0700 C.3   141  LEU141      0.1561
     76  C         25.9100   14.2760  -15.5760 C.2   141  LEU141      0.2260
     77  O         25.3320   15.2410  -15.0660 O.2   141  LEU141     -0.2867
     78  CB        27.1750   14.8730  -17.6560 C.3   141  LEU141      0.0270
     79  CG        27.3510   15.0200  -19.1520 C.3   141  LEU141      0.0019
     80  CD1       28.5740   15.9610  -19.4390 C.3   141  LEU141      0.0001
     81  CD2       27.6010   13.7070  -19.7980 C.3   141  LEU141      0.0001
     82  N         28.8710   13.7730  -12.4720 N.3   143  VAL143     -0.1245
     83  CA        30.2510   13.5370  -12.1450 C.3   143  VAL143      0.1561
     84  C         30.4950   13.4940  -10.6230 C.2   143  VAL143      0.2260
     85  O         30.0750   14.3480   -9.8600 O.2   143  VAL143     -0.2867
     86  CB        31.1760   14.5570  -12.8600 C.3   143  VAL143      0.0252
     87  CG1       32.6390   14.2720  -12.5110 C.3   143  VAL143      0.0019
     88  CG2       30.9110   14.6540  -14.3630 C.3   143  VAL143      0.0019
     89  N         31.0620   21.2930  -17.1470 N.3   198  LEU198     -0.1231
     90  CA        32.3090   20.6320  -17.5220 C.3   198  LEU198      0.1693
     91  C         33.3210   21.7230  -17.0760 C.2   198  LEU198      0.2593
     92  O         32.9050   22.8870  -17.2560 O.2   198  LEU198     -0.2718
     93  CB        32.4380   20.3660  -19.0070 C.3   198  LEU198      0.0284
     94  CG        31.4930   19.3600  -19.6540 C.3   198  LEU198      0.0019
     95  CD1       31.7760   19.2870  -21.1320 C.3   198  LEU198      0.0001
     96  CD2       31.6620   18.0330  -18.9540 C.3   198  LEU198      0.0001
     97  N         34.4410   21.3240  -16.5770 N.am  199  THR199     -0.1939
     98  CA        35.4670   22.2690  -16.0850 C.3   199  THR199      0.2028
     99  C         36.4250   22.6510  -17.2090 C.2   199  THR199      0.2642
    100  O         37.3730   23.4020  -16.9860 O.2   199  THR199     -0.2714
    101  CB        36.1700   21.7900  -14.8010 C.3   199  THR199      0.1808
    102  OG1       36.9780   20.6260  -15.1700 O.3   199  THR199     -0.2208
    103  CG2       35.1430   21.4790  -13.6520 C.3   199  THR199      0.0379
    104  N         36.1370   22.1250  -18.3890 N.am  200  HIS200     -0.1959
    105  CA        36.9970   22.5680  -19.5300 C.3   200  HIS200      0.1772
    106  C         36.2040   22.4920  -20.8220 C.2   200  HIS200      0.2462
    107  O         35.2180   21.7760  -20.9400 O.2   200  HIS200     -0.2730
    108  CB        38.3530   21.8890  -19.6320 C.3   200  HIS200      0.0785
    109  CG        38.2470   20.4460  -19.9180 C.ar  200  HIS200      0.0821
    110  ND1       37.7860   19.9710  -21.1220 N.ar  200  HIS200     -0.2267
    111  CD2       38.6170   19.3920  -19.1560 C.ar  200  HIS200      0.1154
    112  CE1       37.8960   18.6350  -21.0470 C.ar  200  HIS200      0.1986
    113  NE2       38.3640   18.2440  -19.8870 N.ar  200  HIS200     -0.2212
    114  N         36.6760   23.2590  -21.7920 N.am  201  PRO201     -0.2716
    115  CA        35.9900   23.2670  -23.0960 C.3   201  PRO201      0.1521
    116  C         35.5110   21.8870  -23.5060 C.2   201  PRO201      0.2440
    117  O         36.1050   20.7560  -23.3620 O.2   201  PRO201     -0.2731
    118  CB        37.0080   23.9390  -24.0050 C.3   201  PRO201      0.0310
    119  CG        37.9590   24.7240  -23.1420 C.3   201  PRO201      0.0237
    120  CD        37.8400   24.1300  -21.7290 C.3   201  PRO201      0.0939
    121  N         34.3240   21.8090  -24.1120 N.am  202  PRO202     -0.2727
    122  CA        33.3970   22.8840  -24.4430 C.3   202  PRO202      0.1402
    123  C         32.6220   23.5360  -23.3300 C.2   202  PRO202      0.2269
    124  O         31.6890   24.3390  -23.6510 O.2   202  PRO202     -0.2865
    125  CB        32.4890   22.2050  -25.4750 C.3   202  PRO202      0.0296
    126  CG        32.4440   20.7720  -25.0630 C.3   202  PRO202      0.0237
    127  CD        33.8170   20.4630  -24.5200 C.3   202  PRO202      0.0939
    128  N         26.1730   19.1400  -16.1300 N.3   207  VAL207     -0.1245
    129  CA        26.6120   18.3540  -15.0350 C.3   207  VAL207      0.1561
    130  C         25.9990   18.6940  -13.6820 C.2   207  VAL207      0.2260
    131  O         25.9100   19.8390  -13.1830 O.2   207  VAL207     -0.2867
    132  CB        28.1870   18.5270  -14.9570 C.3   207  VAL207      0.0252
    133  CG1       28.7940   17.5530  -13.9470 C.3   207  VAL207      0.0019
    134  CG2       28.8550   18.4210  -16.2970 C.3   207  VAL207      0.0019
    135  N         26.9380   17.7530  -10.2260 N.3   209  TRP209     -0.1241
    136  CA        28.1140   17.3980   -9.4420 C.3   209  TRP209      0.1605
    137  C         27.8310   16.7640   -8.1110 C.2   209  TRP209      0.2264
    138  O         26.9150   17.2210   -7.3940 O.2   209  TRP209     -0.2867
    139  CB        28.9980   18.6880   -9.2200 C.3   209  TRP209      0.0550
    140  CG        29.7980   19.0360  -10.4020 C.ar  209  TRP209      0.0003
    141  CD1       29.4550   19.9570  -11.4080 C.ar  209  TRP209      0.0946
    142  CD2       31.0850   18.5300  -10.7990 C.ar  209  TRP209      0.0152
    143  NE1       30.4320   20.0250  -12.3600 N.ar  209  TRP209     -0.2442
    144  CE2       31.4440   19.1400  -11.9940 C.ar  209  TRP209      0.0810
    145  CE3       31.9260   17.6030  -10.1740 C.ar  209  TRP209      0.0012
    146  CZ2       32.6360   18.8720  -12.6630 C.ar  209  TRP209      0.0191
    147  CZ3       33.1180   17.3280  -10.8390 C.ar  209  TRP209      0.0001
    148  CH2       33.4790   17.9520  -12.0350 C.ar  209  TRP209      0.0015
@<TRIPOS>BOND
     1   125   126    1
     2   125   122    1
     3    66    67    1
     4    68    69    2
     5    68    67    1
     6   126   127    1
     7   127   121    1
     8    67    70    1
     9   122   121    1
    10   122   123    1
    11    70    71    1
    12   121   116   am
    13   118   119    1
    14   118   115    1
    15    73    71    1
    16    71    72    1
    17   124   123    2
    18   116   117    2
    19   116   115    1
    20   119   120    1
    21   115   114    1
    22     7     9   ar
    23     7     6   ar
    24   114   120    1
    25   114   106   am
    26     9    10   ar
    27    95    94    1
    28   110   112   ar
    29   110   109   ar
    30   112   113   ar
    31   107   106    2
    32   106   105    1
    33     6     5    1
    34     6     8   ar
    35    18    20   ar
    36    18    16   ar
    37    30    28   am
    38    10     8   ar
    39    20    21   ar
    40     5     2    1
    41     4     3    2
    42    15    16    1
    43    15    12    1
    44    16    17   ar
    45   109   108    1
    46   109   111   ar
    47   113   111   ar
    48    81    79    1
    49    14    13    2
    50     1     2    1
    51    21    19   ar
    52    94    93    1
    53    94    96    1
    54   108   105    1
    55   105   104    1
    56    80    79    1
    57     2     3    1
    58    17    19   ar
    59    28    27    1
    60    28    29    2
    61    12    13    1
    62    12    11    1
    63    79    78    1
    64    93    90    1
    65    13    22   am
    66    26    27    1
    67    26    23    1
    68   104    99   am
    69    22    23    1
    70    74    75    1
    71    78    75    1
    72    23    24    1
    73    90    89    1
    74    90    91    1
    75    92    91    2
    76    99   100    2
    77    99    98    1
    78    91    97   am
    79    75    76    1
    80    37    39   ar
    81    37    36   ar
    82    97    98    1
    83    39    40   ar
    84   134   132    1
    85    24    25    2
    86    65    62    1
    87   128   129    1
    88    35    36    1
    89    35    32    1
    90    98   101    1
    91    36    38   ar
    92    64    63    2
    93    40    38   ar
    94    76    77    2
    95    63    62    1
    96   102   101    1
    97   129   132    1
    98   129   130    1
    99    62    61    1
   100   132   133    1
   101    49    50   ar
   102    49    47   ar
   103    32    31    1
   104    32    33    1
   105   101   103    1
   106    88    86    1
   107    50    48   ar
   108    47    46   ar
   109   130   131    2
   110    33    34    2
   111    48    46   ar
   112    46    45    1
   113    57    59   ar
   114    57    56   ar
   115    54    53    2
   116    86    87    1
   117    86    83    1
   118   146   148   ar
   119   146   144   ar
   120    55    56    1
   121    55    52    1
   122    82    83    1
   123   143   144   ar
   124   143   141   ar
   125    59    60   ar
   126    42    41    1
   127    42    45    1
   128    42    43    1
   129    83    84    1
   130    56    58   ar
   131    53    52    1
   132   148   147   ar
   133   144   142   ar
   134    52    51    1
   135   141   140   ar
   136    43    44    1
   137    60    58   ar
   138   147   145   ar
   139   142   140   ar
   140   142   145   ar
   141    84    85    2
   142   140   139    1
   143   135   136    1
   144   136   139    1
   145   136   137    1
   146   137   138    2
