@<TRIPOS>MOLECULE
tmp/1czyA00.pdb
 194 191 0 0 0
SMALL
GASTEIGER

@<TRIPOS>ATOM
      1  N        -21.4550   19.4340   15.0440 N.3    41  PRO41      -0.2116
      2  CA       -21.1600   19.6540   16.4570 C.3    41  PRO41       0.1372
      3  C        -19.9640   18.8840   17.0130 C.2    41  PRO41       0.2244
      4  O        -19.1910   19.4260   17.8060 O.2    41  PRO41      -0.2868
      5  CB       -22.4810   19.2890   17.1380 C.3    41  PRO41       0.0268
      6  CG       -23.0560   18.2560   16.1930 C.3    41  PRO41       0.0207
      7  CD       -22.8400   18.9550   14.8860 C.3    41  PRO41       0.0892
      8  N        -14.8990   12.7670   15.9050 N.3    44  PHE44      -0.1241
      9  CA       -14.2870   11.6170   16.5840 C.3    44  PHE44       0.1605
     10  C        -12.8460   11.5270   16.0990 C.2    44  PHE44       0.2264
     11  O        -12.5510   11.8980   14.9650 O.2    44  PHE44      -0.2867
     12  CB       -14.9710   10.2790   16.2390 C.3    44  PHE44       0.0534
     13  CG       -16.3120   10.0830   16.8780 C.ar   44  PHE44      -0.0203
     14  CD1      -17.4720   10.5350   16.2580 C.ar   44  PHE44      -0.0042
     15  CD2      -16.4150    9.4380   18.1150 C.ar   44  PHE44      -0.0042
     16  CE1      -18.7220   10.3460   16.8640 C.ar   44  PHE44      -0.0003
     17  CE2      -17.6540    9.2430   18.7300 C.ar   44  PHE44      -0.0003
     18  CZ       -18.8090    9.6990   18.0990 C.ar   44  PHE44      -0.0000
     19  N        -13.6880   12.1990   21.4870 N.3    60  ARG60      -0.1245
     20  CA       -14.7810   12.8820   20.8250 C.3    60  ARG60       0.1563
     21  C        -14.7790   14.3080   21.3540 C.2    60  ARG60       0.2260
     22  O        -14.8450   14.5350   22.5610 O.2    60  ARG60      -0.2867
     23  CB       -16.1090   12.1830   21.1180 C.3    60  ARG60       0.0307
     24  CG       -17.2700   12.8210   20.3750 C.3    60  ARG60       0.0489
     25  CD       -18.5880   12.0760   20.5360 C.3    60  ARG60       0.2205
     26  NE       -19.6390   12.8290   19.8630 N.pl3  60  ARG60      -0.0865
     27  CZ       -20.6770   12.2930   19.2390 C.cat  60  ARG60       0.5346
     28  NH1      -20.8210   10.9810   19.1940 N.pl3  60  ARG60       0.1354
     29  NH2      -21.5670   13.0690   18.6350 N.pl3  60  ARG60       0.1354
     30  N        -16.1310   18.5580   20.9280 N.3    62  TYR62      -0.1241
     31  CA       -17.1420   19.4960   20.4400 C.3    62  TYR62       0.1605
     32  C        -16.4680   20.8660   20.5140 C.2    62  TYR62       0.2264
     33  O        -16.2960   21.4230   21.6000 O.2    62  TYR62      -0.2867
     34  CB       -18.4010   19.4900   21.3220 C.3    62  TYR62       0.0534
     35  CG       -19.1860   18.1940   21.3090 C.ar   62  TYR62      -0.0201
     36  CD1      -18.6680   17.0330   21.8850 C.ar   62  TYR62      -0.0009
     37  CD2      -20.4520   18.1300   20.7230 C.ar   62  TYR62      -0.0009
     38  CE1      -19.3880   15.8420   21.8790 C.ar   62  TYR62       0.0417
     39  CE2      -21.1870   16.9360   20.7100 C.ar   62  TYR62       0.0417
     40  CZ       -20.6460   15.7980   21.2920 C.ar   62  TYR62       0.1957
     41  OH       -21.3500   14.6120   21.2790 O.3    62  TYR62      -0.2866
     42  N        -20.9260   20.8450   24.2380 N.3    66  ASP66      -0.1225
     43  CA       -22.0310   19.9000   24.3060 C.3    66  ASP66       0.1805
     44  C        -22.6790   19.9870   25.6820 C.2    66  ASP66       0.2598
     45  O        -21.9970   20.2430   26.6780 O.2    66  ASP66      -0.2718
     46  CB       -21.5260   18.4720   24.1100 C.3    66  ASP66       0.1424
     47  CG       -22.6290   17.4500   24.2550 C.2    66  ASP66       0.3668
     48  OD1      -23.5260   17.4290   23.3890 O.co2  66  ASP66      -0.2456
     49  OD2      -22.6130   16.6890   25.2410 O.co2  66  ASP66      -0.2456
     50  N        -23.9910   19.7680   25.7330 N.am   67  GLY67      -0.1942
     51  CA       -24.7090   19.8040   26.9970 C.3    67  GLY67       0.2014
     52  C        -24.5340   21.0860   27.7910 C.2    67  GLY67       0.2639
     53  O        -24.8320   22.1780   27.3020 O.2    67  GLY67      -0.2714
     54  N        -24.0500   20.9490   29.0210 N.am   68  THR68      -0.1950
     55  CA       -23.8350   22.0930   29.8990 C.3    68  THR68       0.1897
     56  C        -22.8160   23.0930   29.3540 C.2    68  THR68       0.2313
     57  O        -22.8160   24.2550   29.7470 O.2    68  THR68      -0.2863
     58  CB       -23.3850   21.6340   31.3060 C.3    68  THR68       0.1794
     59  OG1      -22.2240   20.8000   31.1980 O.3    68  THR68      -0.2208
     60  CG2      -24.4980   20.8580   31.9850 C.3    68  THR68       0.0378
     61  N        -22.4470   23.7550   25.9880 N.3    70  ARG70      -0.1245
     62  CA       -22.8330   24.1880   24.6500 C.3    70  ARG70       0.1563
     63  C        -22.7460   25.7030   24.4580 C.2    70  ARG70       0.2260
     64  O        -23.3950   26.4680   25.1730 O.2    70  ARG70      -0.2867
     65  CB       -24.2530   23.7000   24.3340 C.3    70  ARG70       0.0307
     66  CG       -24.7450   24.0020   22.9180 C.3    70  ARG70       0.0489
     67  CD       -26.1440   23.4300   22.6830 C.3    70  ARG70       0.2205
     68  NE       -26.1800   21.9750   22.8420 N.pl3  70  ARG70      -0.0865
     69  CZ       -25.8380   21.0980   21.9000 C.cat  70  ARG70       0.5346
     70  NH1      -25.4940   21.5200   20.6800 N.pl3  70  ARG70       0.1354
     71  NH2      -25.8920   19.7960   22.1550 N.pl3  70  ARG70       0.1354
     72  N        -14.5560   14.4450   25.2300 N.3    77  PHE77      -0.1241
     73  CA       -14.9670   13.1720   25.8140 C.3    77  PHE77       0.1605
     74  C        -14.0780   11.9910   25.4210 C.2    77  PHE77       0.2264
     75  O        -13.3620   12.0300   24.4220 O.2    77  PHE77      -0.2867
     76  CB       -16.4170   12.8410   25.4350 C.3    77  PHE77       0.0534
     77  CG       -17.4100   13.9080   25.8140 C.ar   77  PHE77      -0.0203
     78  CD1      -17.5780   15.0380   25.0160 C.ar   77  PHE77      -0.0042
     79  CD2      -18.1700   13.7860   26.9720 C.ar   77  PHE77      -0.0042
     80  CE1      -18.4960   16.0330   25.3680 C.ar   77  PHE77      -0.0003
     81  CE2      -19.0850   14.7690   27.3350 C.ar   77  PHE77      -0.0003
     82  CZ       -19.2500   15.8980   26.5300 C.ar   77  PHE77      -0.0000
     83  N        -10.3040   11.8290   35.2280 N.3   114  PHE114     -0.1227
     84  CA       -11.4350   11.1860   35.8510 C.3   114  PHE114      0.1736
     85  C        -11.2310    9.6860   35.8790 C.2   114  PHE114      0.2595
     86  O        -10.4340    9.1330   35.1140 O.2   114  PHE114     -0.2718
     87  CB       -12.7250   11.5270   35.0840 C.3   114  PHE114      0.0547
     88  CG       -12.8070   10.9200   33.6920 C.ar  114  PHE114     -0.0202
     89  CD1      -12.9950    9.5490   33.5220 C.ar  114  PHE114     -0.0042
     90  CD2      -12.6950   11.7200   32.5580 C.ar  114  PHE114     -0.0042
     91  CE1      -13.0760    8.9830   32.2450 C.ar  114  PHE114     -0.0003
     92  CE2      -12.7730   11.1670   31.2760 C.ar  114  PHE114     -0.0003
     93  CZ       -12.9630    9.7970   31.1180 C.ar  114  PHE114     -0.0000
     94  N        -11.9260    9.0400   36.8040 N.am  115  ARG115     -0.1966
     95  CA       -11.9000    7.5960   36.9020 C.3   115  ARG115      0.1714
     96  C        -13.3020    7.2170   36.4640 C.2   115  ARG115      0.2458
     97  O        -14.2740    7.8650   36.8420 O.2   115  ARG115     -0.2730
     98  CB       -11.6020    7.1380   38.3290 C.3   115  ARG115      0.0347
     99  CG       -10.1400    7.3130   38.6930 C.3   115  ARG115      0.0492
    100  CD        -9.8430    6.8240   40.0960 C.3   115  ARG115      0.2205
    101  NE        -8.4170    6.8910   40.4130 N.pl3 115  ARG115     -0.0865
    102  CZ        -7.4830    6.1450   39.8310 C.cat 115  ARG115      0.5346
    103  NH1       -7.8150    5.2660   38.8950 N.pl3 115  ARG115      0.1354
    104  NH2       -6.2120    6.2710   40.1900 N.pl3 115  ARG115      0.1354
    105  N        -13.4220    6.1680   35.6430 N.am  116  PRO116     -0.2716
    106  CA       -14.7110    5.7070   35.1330 C.3   116  PRO116      0.1536
    107  C        -15.7730    5.4020   36.1750 C.2   116  PRO116      0.2598
    108  O        -15.4740    5.0100   37.2980 O.2   116  PRO116     -0.2715
    109  CB       -14.3250    4.4590   34.3340 C.3   116  PRO116      0.0310
    110  CG       -12.9340    4.8080   33.8430 C.3   116  PRO116      0.0237
    111  CD       -12.3480    5.2850   35.1590 C.3   116  PRO116      0.0939
    112  N        -17.0240    5.6130   35.7900 N.am  117  ASP117     -0.1972
    113  CA       -18.1390    5.2870   36.6580 C.3   117  ASP117      0.1709
    114  C        -18.5330    3.8800   36.2330 C.2   117  ASP117      0.2293
    115  O        -19.2110    3.6880   35.2260 O.2   117  ASP117     -0.2864
    116  CB       -19.2980    6.2650   36.4550 C.3   117  ASP117      0.1436
    117  CG       -20.5890    5.7600   37.0590 C.2   117  ASP117      0.3671
    118  OD1      -20.5380    5.1340   38.1380 O.co2 117  ASP117     -0.2456
    119  OD2      -21.6570    6.0010   36.4640 O.co2 117  ASP117     -0.2456
    120  N        -21.8380    3.1000   34.6440 N.3   120  SER120     -0.1202
    121  CA       -22.2840    3.7940   33.4430 C.3   120  SER120      0.2020
    122  C        -22.1780    2.9060   32.2120 C.2   120  SER120      0.2619
    123  O        -21.2530    2.1020   32.0900 O.2   120  SER120     -0.2717
    124  CB       -21.4540    5.0600   33.2160 C.3   120  SER120      0.2103
    125  OG       -21.8230    5.6820   31.9990 O.3   120  SER120     -0.2182
    126  N        -23.1230    3.0570   31.2950 N.am  121  SER121     -0.1937
    127  CA       -23.1110    2.2660   30.0720 C.3   121  SER121      0.2055
    128  C        -21.8770    2.6150   29.2390 C.2   121  SER121      0.2644
    129  O        -21.4900    1.8630   28.3430 O.2   121  SER121     -0.2714
    130  CB       -24.3690    2.5430   29.2550 C.3   121  SER121      0.2130
    131  OG       -24.4060    3.8990   28.8430 O.3   121  SER121     -0.2179
    132  N        -21.2670    3.7630   29.5320 N.am  122  SER122     -0.1935
    133  CA       -20.0800    4.1960   28.8000 C.3   122  SER122      0.2055
    134  C        -18.8720    3.2880   29.0050 C.2   122  SER122      0.2643
    135  O        -17.9730    3.2560   28.1670 O.2   122  SER122     -0.2714
    136  CB       -19.6720    5.6200   29.2050 C.3   122  SER122      0.2130
    137  OG       -20.5960    6.5870   28.7550 O.3   122  SER122     -0.2179
    138  N        -18.8410    2.5500   30.1090 N.am  123  PHE123     -0.1973
    139  CA       -17.6820    1.7100   30.3690 C.3   123  PHE123      0.1639
    140  C        -17.9160    0.2070   30.3890 C.2   123  PHE123      0.2290
    141  O        -17.0250   -0.5630   30.7620 O.2   123  PHE123     -0.2864
    142  CB       -17.0030    2.1720   31.6610 C.3   123  PHE123      0.0560
    143  CG       -16.6490    3.6370   31.6540 C.ar  123  PHE123     -0.0200
    144  CD1      -17.5560    4.5920   32.1090 C.ar  123  PHE123     -0.0042
    145  CD2      -15.4420    4.0690   31.1120 C.ar  123  PHE123     -0.0042
    146  CE1      -17.2660    5.9560   32.0210 C.ar  123  PHE123     -0.0003
    147  CE2      -15.1440    5.4300   31.0190 C.ar  123  PHE123     -0.0003
    148  CZ       -16.0590    6.3740   31.4730 C.ar  123  PHE123     -0.0000
    149  N        -19.2480    3.0590   22.4400 N.3   131  ASN131     -0.1225
    150  CA       -20.1410    3.2080   23.5910 C.3   131  ASN131      0.1785
    151  C        -20.4330    4.7060   23.6330 C.2   131  ASN131      0.2597
    152  O        -19.8310    5.4810   22.8830 O.2   131  ASN131     -0.2718
    153  CB       -19.4630    2.8370   24.9250 C.3   131  ASN131      0.1169
    154  CG       -19.4210    1.3440   25.1880 C.2   131  ASN131      0.2627
    155  OD1      -20.0220    0.5530   24.4670 O.2   131  ASN131     -0.2716
    156  ND2      -18.7260    0.9560   26.2540 N.am  131  ASN131     -0.0877
    157  N        -21.3500    5.1090   24.5060 N.am  132  ILE132     -0.1966
    158  CA       -21.6810    6.5210   24.6670 C.3   132  ILE132      0.1727
    159  C        -20.4050    7.1770   25.1770 C.2   132  ILE132      0.2616
    160  O        -19.7320    6.6240   26.0460 O.2   132  ILE132     -0.2715
    161  CB       -22.7660    6.7390   25.7460 C.3   132  ILE132      0.0290
    162  CG1      -24.0450    5.9800   25.3880 C.3   132  ILE132      0.0022
    163  CG2      -23.0390    8.2220   25.9010 C.3   132  ILE132      0.0023
    164  CD1      -24.6980    6.4470   24.1350 C.3   132  ILE132      0.0001
    165  N        -20.0690    8.3460   24.6480 N.am  133  ALA133     -0.1963
    166  CA       -18.8650    9.0400   25.0860 C.3   133  ALA133      0.1728
    167  C        -19.0910    9.6390   26.4670 C.2   133  ALA133      0.2617
    168  O        -20.1890   10.0770   26.7930 O.2   133  ALA133     -0.2715
    169  CB       -18.4920   10.1410   24.0940 C.3   133  ALA133      0.0334
    170  N        -18.0440    9.6520   27.2790 N.am  134  SER134     -0.1936
    171  CA       -18.1520   10.2010   28.6210 C.3   134  SER134      0.2058
    172  C        -16.9160   11.0270   28.9130 C.2   134  SER134      0.2682
    173  O        -15.8070   10.6730   28.5120 O.2   134  SER134     -0.2710
    174  CB       -18.3040    9.0730   29.6410 C.3   134  SER134      0.2130
    175  OG       -18.4480    9.5900   30.9470 O.3   134  SER134     -0.2179
    176  N        -17.1030   12.1420   29.6040 N.am  135  GLY135     -0.1729
    177  CA       -15.9610   12.9760   29.8960 C.2   135  GLY135      0.1340
    178  C        -16.2130   14.3380   30.5110 C.2   135  GLY135      0.2521
    179  O        -16.9020   14.4610   31.5270 O.2   135  GLY135     -0.2816
    180  N        -17.7530   17.9620   29.7400 N.3   137  PRO137     -0.2102
    181  CA       -18.5300   18.9340   28.9630 C.3   137  PRO137      0.1504
    182  C        -18.0200   20.3690   29.1240 C.2   137  PRO137      0.2575
    183  O        -18.1880   21.1990   28.2320 O.2   137  PRO137     -0.2718
    184  CB       -19.9480   18.7420   29.5100 C.3   137  PRO137      0.0282
    185  CG       -19.6900   18.3280   30.9380 C.3   137  PRO137      0.0208
    186  CD       -18.6270   17.2740   30.7070 C.3   137  PRO137      0.0893
    187  N        -17.3960   20.6560   30.2630 N.am  138  LEU138     -0.1980
    188  CA       -16.8670   21.9930   30.5310 C.3   138  LEU138      0.1596
    189  C        -15.3400   21.9340   30.5860 C.2   138  LEU138      0.2287
    190  O        -14.7200   22.5220   31.4740 O.2   138  LEU138     -0.2864
    191  CB       -17.4000   22.5060   31.8740 C.3   138  LEU138      0.0297
    192  CG       -18.9170   22.5460   32.0840 C.3   138  LEU138      0.0022
    193  CD1      -19.2190   22.9840   33.5120 C.3   138  LEU138      0.0001
    194  CD2      -19.5580   23.4910   31.0820 C.3   138  LEU138      0.0001
@<TRIPOS>BOND
     1     7     1    1
     2     7     6    1
     3    11    10    2
     4     1     2    1
     5     8     9    1
     6    10     9    1
     7     6     5    1
     8    12     9    1
     9    12    13    1
    10    14    16   ar
    11    14    13   ar
    12     2     3    1
    13     2     5    1
    14    16    18   ar
    15    13    15   ar
    16     3     4    2
    17    18    17   ar
    18    15    17   ar
    19    29    27    1
    20    28    27    1
    21    27    26    2
    22    26    25    1
    23    24    25    1
    24    24    23    1
    25    31    32    1
    26    31    30    1
    27    31    34    1
    28    32    33    2
    29    70    69    1
    30    39    37   ar
    31    39    40   ar
    32    37    35   ar
    33    20    23    1
    34    20    21    1
    35    20    19    1
    36    41    40    1
    37    40    38   ar
    38    35    34    1
    39    35    36   ar
    40    21    22    2
    41    38    36   ar
    42    69    71    1
    43    69    68    2
    44   149   150    1
    45    67    68    1
    46    67    66    1
    47   152   151    2
    48    66    65    1
    49    48    47   ar
    50   150   151    1
    51   150   153    1
    52   151   157   am
    53   169   166    1
    54    46    47    1
    55    46    43    1
    56   164   162    1
    57    42    43    1
    58    47    49   ar
    59    43    44    1
    60    65    62    1
    61    75    74    2
    62    63    62    1
    63    63    64    2
    64   155   154    2
    65   157   158    1
    66   165   166    1
    67   165   159   am
    68    62    61    1
    69   158   159    1
    70   158   161    1
    71   153   154    1
    72    78    80   ar
    73    78    77   ar
    74   166   167    1
    75   159   160    2
    76   154   156   am
    77    72    73    1
    78    80    82   ar
    79   162   161    1
    80    74    73    1
    81    76    73    1
    82    76    77    1
    83    44    50   am
    84    44    45    2
    85    50    51    1
    86   161   163    1
    87    77    79   ar
    88   167   168    2
    89   167   170   am
    90    82    81   ar
    91    79    81   ar
    92    51    52    1
    93   170   171    1
    94    53    52    2
    95    52    54   am
    96   135   134    2
    97   183   182    2
    98   129   128    2
    99   173   172    2
   100   171   172    1
   101   171   174    1
   102   137   136    1
   103   133   134    1
   104   133   136    1
   105   133   132    1
   106   131   130    1
   107   172   176    1
   108   181   182    1
   109   181   184    1
   110   181   180    1
   111   134   138   am
   112    54    55    1
   113   182   187   am
   114   128   132   am
   115   128   127    1
   116   130   127    1
   117    56    57    2
   118    56    55    1
   119   184   185    1
   120   176   177    2
   121   174   175    1
   122   180   186    1
   123   177   178    1
   124    55    58    1
   125   127   126    1
   126   138   139    1
   127   187   188    1
   128   139   140    1
   129   139   142    1
   130   140   141    2
   131   178   179    2
   132   188   189    1
   133   188   191    1
   134   189   190    2
   135   186   185    1
   136   147   145   ar
   137   147   148   ar
   138   194   192    1
   139   145   143   ar
   140    93    92   ar
   141    93    91   ar
   142    59    58    1
   143    92    90   ar
   144   126   122   am
   145    58    60    1
   146   148   146   ar
   147   143   142    1
   148   143   144   ar
   149   191   192    1
   150   125   124    1
   151   146   144   ar
   152   192   193    1
   153   123   122    2
   154   122   121    1
   155    91    89   ar
   156    90    88   ar
   157   124   121    1
   158   121   120    1
   159    89    88   ar
   160    88    87    1
   161   110   109    1
   162   110   111    1
   163   109   106    1
   164    87    84    1
   165    86    85    2
   166   106   105    1
   167   106   107    1
   168   111   105    1
   169   115   114    2
   170    83    84    1
   171   105    96   am
   172   112   107   am
   173   112   113    1
   174    84    85    1
   175    85    94   am
   176   107   108    2
   177   114   113    1
   178   116   113    1
   179   116   117    1
   180   119   117   ar
   181    96    97    2
   182    96    95    1
   183    94    95    1
   184    95    98    1
   185   117   118   ar
   186    98    99    1
   187    99   100    1
   188   103   102    1
   189   102   104    1
   190   102   101    2
   191   100   101    1
