@<TRIPOS>MOLECULE
tmp/1czzB00.pdb
 184 179 0 0 0
SMALL
GASTEIGER

@<TRIPOS>ATOM
      1  N         -9.1530  -28.4380   13.0200 N.3    60  PRO60      -0.2102
      2  CA        -8.4960  -28.9960   14.2090 C.3    60  PRO60       0.1504
      3  C         -7.9410  -27.9610   15.1830 C.2    60  PRO60       0.2575
      4  O         -8.2910  -27.9600   16.3680 O.2    60  PRO60      -0.2718
      5  CB        -7.3740  -29.8570   13.6080 C.3    60  PRO60       0.0282
      6  CG        -7.8960  -30.1860   12.2180 C.3    60  PRO60       0.0208
      7  CD        -8.3930  -28.8210   11.8160 C.3    60  PRO60       0.0893
      8  N         -7.0780  -27.0850   14.6730 N.am   61  ALA61      -0.1980
      9  CA        -6.4410  -26.0640   15.5030 C.3    61  ALA61       0.1597
     10  C         -6.4190  -24.6340   14.9280 C.2    61  ALA61       0.2287
     11  O         -6.4260  -24.4310   13.7080 O.2    61  ALA61      -0.2864
     12  CB        -5.0170  -26.5080   15.8270 C.3    61  ALA61       0.0319
     13  N         -4.4780  -20.7140   15.2130 N.3    63  PHE63      -0.1241
     14  CA        -3.3040  -19.9990   15.6840 C.3    63  PHE63       0.1605
     15  C         -3.7730  -18.6400   16.1880 C.2    63  PHE63       0.2264
     16  O         -4.8180  -18.1430   15.7660 O.2    63  PHE63      -0.2867
     17  CB        -2.2890  -19.7750   14.5680 C.3    63  PHE63       0.0534
     18  CG        -1.5410  -21.0070   14.1630 C.ar   63  PHE63      -0.0203
     19  CD1       -1.9330  -21.7510   13.0570 C.ar   63  PHE63      -0.0042
     20  CD2       -0.4130  -21.4030   14.8750 C.ar   63  PHE63      -0.0042
     21  CE1       -1.2030  -22.8760   12.6590 C.ar   63  PHE63      -0.0003
     22  CE2        0.3250  -22.5240   14.4930 C.ar   63  PHE63      -0.0003
     23  CZ        -0.0690  -23.2610   13.3790 C.ar   63  PHE63      -0.0000
     24  N         -1.2950  -21.8630   19.8940 N.3    79  ARG79      -0.1245
     25  CA        -2.0670  -22.6920   18.9830 C.3    79  ARG79       0.1563
     26  C         -2.9750  -23.5790   19.8110 C.2    79  ARG79       0.2260
     27  O         -2.5040  -24.3070   20.6830 O.2    79  ARG79      -0.2867
     28  CB        -1.1690  -23.5550   18.1000 C.3    79  ARG79       0.0307
     29  CG        -1.9540  -24.1860   16.9650 C.3    79  ARG79       0.0489
     30  CD        -1.0890  -25.0670   16.0890 C.3    79  ARG79       0.2205
     31  NE        -1.8040  -25.4610   14.8800 N.pl3  79  ARG79      -0.0865
     32  CZ        -1.2970  -26.2210   13.9160 C.cat  79  ARG79       0.5346
     33  NH1       -0.0610  -26.6850   14.0070 N.pl3  79  ARG79       0.1354
     34  NH2       -2.0230  -26.4950   12.8460 N.pl3  79  ARG79       0.1354
     35  N         -6.3160  -26.4580   20.0270 N.3    81  TYR81      -0.1241
     36  CA        -7.1590  -27.4780   19.3990 C.3    81  TYR81       0.1605
     37  C         -8.3490  -27.5950   20.3310 C.2    81  TYR81       0.2264
     38  O         -8.2670  -28.2730   21.3520 O.2    81  TYR81      -0.2867
     39  CB        -6.4810  -28.8460   19.3460 C.3    81  TYR81       0.0534
     40  CG        -5.2600  -28.9170   18.4810 C.ar   81  TYR81      -0.0201
     41  CD1       -4.1250  -28.1850   18.7910 C.ar   81  TYR81      -0.0009
     42  CD2       -5.2200  -29.7560   17.3820 C.ar   81  TYR81      -0.0009
     43  CE1       -2.9800  -28.2830   18.0270 C.ar   81  TYR81       0.0417
     44  CE2       -4.0770  -29.8630   16.6080 C.ar   81  TYR81       0.0417
     45  CZ        -2.9570  -29.1290   16.9400 C.ar   81  TYR81       0.1957
     46  OH        -1.8100  -29.2370   16.1890 O.3    81  TYR81      -0.2866
     47  N         -5.4590  -32.8340   20.9580 N.3    85  ASP85      -0.1225
     48  CA        -4.3850  -33.2880   20.0770 C.3    85  ASP85       0.1805
     49  C         -3.5490  -34.3070   20.8280 C.2    85  ASP85       0.2598
     50  O         -3.4020  -34.2030   22.0400 O.2    85  ASP85      -0.2718
     51  CB        -3.4710  -32.1330   19.6730 C.3    85  ASP85       0.1424
     52  CG        -2.2570  -32.5990   18.8740 C.2    85  ASP85       0.3668
     53  OD1       -2.4500  -33.1090   17.7480 O.co2  85  ASP85      -0.2456
     54  OD2       -1.1150  -32.4630   19.3690 O.co2  85  ASP85      -0.2456
     55  N         -2.9950  -35.2760   20.1060 N.am   86  GLY86      -0.1942
     56  CA        -2.1840  -36.2990   20.7410 C.3    86  GLY86       0.2014
     57  C         -2.9340  -37.0650   21.8200 C.2    86  GLY86       0.2639
     58  O         -3.9760  -37.6670   21.5540 O.2    86  GLY86      -0.2714
     59  N         -2.4060  -37.0250   23.0400 N.am   87  THR87      -0.1950
     60  CA        -3.0020  -37.7150   24.1830 C.3    87  THR87       0.1897
     61  C         -4.3370  -37.1410   24.6600 C.2    87  THR87       0.2313
     62  O         -5.0850  -37.8130   25.3700 O.2    87  THR87      -0.2863
     63  CB        -2.0170  -37.7480   25.3890 C.3    87  THR87       0.1794
     64  OG1       -1.6270  -36.4140   25.7410 O.3    87  THR87      -0.2208
     65  CG2       -0.7790  -38.5540   25.0430 C.3    87  THR87       0.0378
     66  N         -6.8380  -35.8950   22.5340 N.3    89  ARG89      -0.1245
     67  CA        -7.8270  -35.8700   21.4570 C.3    89  ARG89       0.1563
     68  C         -9.2210  -36.3010   21.9220 C.2    89  ARG89       0.2260
     69  O         -9.3940  -37.3740   22.5060 O.2    89  ARG89      -0.2867
     70  CB        -7.3610  -36.7610   20.2970 C.3    89  ARG89       0.0307
     71  CG        -8.1310  -36.5330   18.9980 C.3    89  ARG89       0.0489
     72  CD        -7.4890  -37.2720   17.8150 C.3    89  ARG89       0.2205
     73  NE        -6.0540  -36.9750   17.7470 N.pl3  89  ARG89      -0.0865
     74  CZ        -5.4750  -36.2000   16.8360 C.cat  89  ARG89       0.5346
     75  NH1       -6.1990  -35.6660   15.8530 N.pl3  89  ARG89       0.1354
     76  NH2       -4.1680  -35.9820   16.9010 N.pl3  89  ARG89       0.1354
     77  N         -0.8620  -24.9770   22.8580 N.3    96  PHE96      -0.1241
     78  CA         0.5850  -25.0270   22.6260 C.3    96  PHE96       0.1605
     79  C          1.2480  -23.6740   22.4380 C.2    96  PHE96       0.2264
     80  O          0.5970  -22.7110   22.0950 O.2    96  PHE96      -0.2867
     81  CB         0.9150  -25.8980   21.4020 C.3    96  PHE96       0.0534
     82  CG         0.3950  -27.2970   21.4990 C.ar   96  PHE96      -0.0203
     83  CD1       -0.9380  -27.5780   21.2220 C.ar   96  PHE96      -0.0042
     84  CD2        1.2270  -28.3300   21.9380 C.ar   96  PHE96      -0.0042
     85  CE1       -1.4400  -28.8670   21.3860 C.ar   96  PHE96      -0.0003
     86  CE2        0.7360  -29.6300   22.1090 C.ar   96  PHE96      -0.0003
     87  CZ        -0.6020  -29.8990   21.8320 C.ar   96  PHE96      -0.0000
     88  N          5.6420  -24.2170   32.2110 N.3   133  PHE133     -0.1227
     89  CA         6.7130  -25.1360   31.8500 C.3   133  PHE133      0.1736
     90  C          7.9800  -24.4210   31.4440 C.2   133  PHE133      0.2595
     91  O          7.9460  -23.2480   31.1050 O.2   133  PHE133     -0.2718
     92  CB         6.2630  -26.0520   30.7030 C.3   133  PHE133      0.0547
     93  CG         6.0800  -25.3440   29.3690 C.ar  133  PHE133     -0.0202
     94  CD1        7.1790  -24.8660   28.6530 C.ar  133  PHE133     -0.0042
     95  CD2        4.8070  -25.1790   28.8190 C.ar  133  PHE133     -0.0042
     96  CE1        7.0170  -24.2380   27.4170 C.ar  133  PHE133     -0.0003
     97  CE2        4.6350  -24.5530   27.5830 C.ar  133  PHE133     -0.0003
     98  CZ         5.7430  -24.0840   26.8830 C.ar  133  PHE133     -0.0000
     99  N          9.0970  -25.1390   31.4930 N.am  134  ARG134     -0.1980
    100  CA        10.3830  -24.5920   31.0800 C.3   134  ARG134      0.1597
    101  C         10.7600  -25.3130   29.8060 C.2   134  ARG134      0.2287
    102  O         10.6580  -26.5350   29.7210 O.2   134  ARG134     -0.2864
    103  CB        11.4640  -24.8090   32.1410 C.3   134  ARG134      0.0334
    104  CG        11.2530  -23.9810   33.3750 C.3   134  ARG134      0.0492
    105  CD        12.3970  -24.0920   34.3790 C.3   134  ARG134      0.2205
    106  NE        12.1600  -23.2070   35.5220 N.pl3 134  ARG134     -0.0865
    107  CZ        12.0180  -21.8830   35.4280 C.cat 134  ARG134      0.5346
    108  NH1       12.0910  -21.2840   34.2340 N.pl3 134  ARG134      0.1354
    109  NH2       11.7850  -21.1620   36.5260 N.pl3 134  ARG134      0.1354
    110  N         12.2700  -27.2870   26.6380 N.3   136  ASP136     -0.1239
    111  CA        13.0430  -28.5060   26.4970 C.3   136  ASP136      0.1674
    112  C         14.1860  -28.0380   25.5870 C.2   136  ASP136      0.2266
    113  O         14.0870  -28.1170   24.3570 O.2   136  ASP136     -0.2867
    114  CB        12.1920  -29.5490   25.7720 C.3   136  ASP136      0.1410
    115  CG        12.8070  -30.9350   25.7800 C.2   136  ASP136      0.3668
    116  OD1       14.0430  -31.0630   25.9530 O.co2 136  ASP136     -0.2456
    117  OD2       12.0370  -31.8990   25.5790 O.co2 136  ASP136     -0.2456
    118  N         14.8960  -29.7810   22.4530 N.3   139  SER139     -0.1202
    119  CA        13.7800  -29.9380   21.5230 C.3   139  SER139      0.2020
    120  C         13.8850  -28.9800   20.3520 C.2   139  SER139      0.2619
    121  O         14.3130  -27.8430   20.5140 O.2   139  SER139     -0.2717
    122  CB        12.4560  -29.7000   22.2370 C.3   139  SER139      0.2103
    123  OG        11.3760  -29.8500   21.3340 O.3   139  SER139     -0.2182
    124  N         13.4870  -29.4330   19.1720 N.am  140  SER140     -0.1937
    125  CA        13.5470  -28.5800   17.9850 C.3   140  SER140      0.2055
    126  C         12.6240  -27.3680   18.1180 C.2   140  SER140      0.2644
    127  O         12.7940  -26.3630   17.4240 O.2   140  SER140     -0.2714
    128  CB        13.1450  -29.3770   16.7440 C.3   140  SER140      0.2130
    129  OG        11.8160  -29.8590   16.8620 O.3   140  SER140     -0.2179
    130  N         11.6430  -27.4800   19.0130 N.am  141  SER141     -0.1935
    131  CA        10.6800  -26.4180   19.2460 C.3   141  SER141      0.2055
    132  C         11.3110  -25.1340   19.7580 C.2   141  SER141      0.2643
    133  O         10.7370  -24.0610   19.6070 O.2   141  SER141     -0.2714
    134  CB         9.6110  -26.8730   20.2380 C.3   141  SER141      0.2130
    135  OG         8.8150  -27.9050   19.7010 O.3   141  SER141     -0.2179
    136  N         12.4920  -25.2240   20.3580 N.am  142  PHE142     -0.1973
    137  CA        13.1160  -24.0180   20.8790 C.3   142  PHE142      0.1639
    138  C         14.4650  -23.6510   20.2780 C.2   142  PHE142      0.2290
    139  O         15.2270  -22.8900   20.8660 O.2   142  PHE142     -0.2864
    140  CB        13.2210  -24.1040   22.4010 C.3   142  PHE142      0.0560
    141  CG        11.9220  -24.4510   23.0720 C.ar  142  PHE142     -0.0200
    142  CD1       11.5920  -25.7750   23.3320 C.ar  142  PHE142     -0.0042
    143  CD2       11.0080  -23.4550   23.4090 C.ar  142  PHE142     -0.0042
    144  CE1       10.3720  -26.1080   23.9250 C.ar  142  PHE142     -0.0003
    145  CE2        9.7840  -23.7780   24.0000 C.ar  142  PHE142     -0.0003
    146  CZ         9.4680  -25.1070   24.2580 C.ar  142  PHE142     -0.0000
    147  N          8.1640  -23.0160   14.3390 N.3   150  ASN150     -0.1225
    148  CA         8.7250  -24.2880   14.7630 C.3   150  ASN150      0.1785
    149  C          7.5350  -25.1740   15.1220 C.2   150  ASN150      0.2597
    150  O          6.3700  -24.7980   14.9440 O.2   150  ASN150     -0.2718
    151  CB         9.6120  -24.1630   16.0120 C.3   150  ASN150      0.1169
    152  CG        10.9440  -23.4810   15.7360 C.2   150  ASN150      0.2627
    153  OD1       11.4310  -23.4570   14.6010 O.2   150  ASN150     -0.2716
    154  ND2       11.5640  -22.9600   16.7910 N.am  150  ASN150     -0.0877
    155  N          7.8400  -26.3530   15.6360 N.am  151  ILE151     -0.1966
    156  CA         6.8220  -27.2910   16.0520 C.3   151  ILE151      0.1727
    157  C          6.2490  -26.7960   17.3860 C.2   151  ILE151      0.2616
    158  O          6.9920  -26.5280   18.3280 O.2   151  ILE151     -0.2715
    159  CB         7.4510  -28.6860   16.2170 C.3   151  ILE151      0.0290
    160  CG1        8.0210  -29.1260   14.8630 C.3   151  ILE151      0.0022
    161  CG2        6.4310  -29.6720   16.7920 C.3   151  ILE151      0.0023
    162  CD1        8.6990  -30.4830   14.8600 C.3   151  ILE151      0.0001
    163  N          4.9330  -26.6440   17.4530 N.am  152  ALA152     -0.1963
    164  CA         4.2870  -26.2030   18.6780 C.3   152  ALA152      0.1728
    165  C          4.5890  -27.1820   19.8020 C.2   152  ALA152      0.2617
    166  O          4.6660  -28.3900   19.5890 O.2   152  ALA152     -0.2715
    167  CB         2.7790  -26.0910   18.4760 C.3   152  ALA152      0.0334
    168  N          4.7620  -26.6510   21.0040 N.am  153  SER153     -0.1936
    169  CA         5.0540  -27.4800   22.1620 C.3   153  SER153      0.2058
    170  C          4.3570  -26.9130   23.3960 C.2   153  SER153      0.2682
    171  O          4.4720  -25.7260   23.6910 O.2   153  SER153     -0.2710
    172  CB         6.5650  -27.5260   22.3980 C.3   153  SER153      0.2130
    173  OG         6.8760  -28.3090   23.5410 O.3   153  SER153     -0.2179
    174  N          3.6400  -27.7610   24.1270 N.am  154  GLY154     -0.1729
    175  CA         2.9550  -27.2810   25.3090 C.2   154  GLY154      0.1340
    176  C          2.1810  -28.3060   26.1030 C.2   154  GLY154      0.2521
    177  O          2.7010  -29.3560   26.4490 O.2   154  GLY154     -0.2816
    178  N         -0.8410  -30.6930   25.8410 N.3   156  PRO156     -0.2116
    179  CA        -1.9000  -31.3940   25.1070 C.3   156  PRO156      0.1372
    180  C         -3.1190  -31.7590   25.9640 C.2   156  PRO156      0.2244
    181  O         -4.2070  -31.9750   25.4320 O.2   156  PRO156     -0.2868
    182  CB        -1.1600  -32.6070   24.5440 C.3   156  PRO156      0.0268
    183  CG        -0.0900  -32.8390   25.5770 C.3   156  PRO156      0.0207
    184  CD         0.4200  -31.4520   25.7490 C.3   156  PRO156      0.0892
@<TRIPOS>BOND
     1     7     6    1
     2     7     1    1
     3     6     5    1
     4    21    19   ar
     5    21    23   ar
     6    34    32    1
     7     1     2    1
     8    19    18   ar
     9    23    22   ar
    10     5     2    1
    11    11    10    2
    12    32    33    1
    13    32    31    2
    14    18    17    1
    15    18    20   ar
    16     2     3    1
    17   147   148    1
    18    22    20   ar
    19    17    14    1
    20   153   152    2
    21     8     3   am
    22     8     9    1
    23   148   149    1
    24   148   151    1
    25   162   160    1
    26   160   159    1
    27    31    30    1
    28    10     9    1
    29   150   149    2
    30   149   155   am
    31     3     4    2
    32    13    14    1
    33     9    12    1
    34   155   156    1
    35    14    15    1
    36   152   151    1
    37   152   154   am
    38    16    15    2
    39    75    74    1
    40   156   159    1
    41   156   157    1
    42    30    29    1
    43    46    45    1
    44   159   161    1
    45    44    45   ar
    46    44    42   ar
    47   128   129    1
    48   128   125    1
    49    74    76    1
    50    74    73    2
    51    45    43   ar
    52    29    28    1
    53    42    40   ar
    54   157   163   am
    55   157   158    2
    56   127   126    2
    57   163   164    1
    58    73    72    1
    59    53    52   ar
    60    72    71    1
    61   125   126    1
    62   125   124    1
    63    43    41   ar
    64    28    25    1
    65   126   130   am
    66   167   164    1
    67    40    41   ar
    68    40    39    1
    69   164   165    1
    70    52    54   ar
    71    52    51    1
    72    25    26    1
    73    25    24    1
    74    71    70    1
    75   130   131    1
    76   124   120   am
    77   131   132    1
    78   131   134    1
    79    39    36    1
    80    36    35    1
    81    36    37    1
    82   166   165    2
    83   133   132    2
    84    51    48    1
    85   135   134    1
    86   132   136   am
    87   165   168   am
    88    26    27    2
    89    48    49    1
    90    48    47    1
    91    55    56    1
    92    55    49   am
    93   138   139    2
    94   138   137    1
    95    70    67    1
    96    37    38    2
    97   120   121    2
    98   120   119    1
    99   136   137    1
   100    56    57    1
   101    49    50    2
   102   137   140    1
   103   168   169    1
   104    83    85   ar
   105    83    82   ar
   106   123   122    1
   107    85    87   ar
   108    81    82    1
   109    81    78    1
   110    67    68    1
   111    67    66    1
   112    82    84   ar
   113   119   122    1
   114   119   118    1
   115    58    57    2
   116    57    59   am
   117    87    86   ar
   118    68    69    2
   119    84    86   ar
   120    80    79    2
   121   169   172    1
   122   169   170    1
   123   172   173    1
   124   140   141    1
   125    79    78    1
   126    78    77    1
   127    59    60    1
   128   141   142   ar
   129   141   143   ar
   130   142   144   ar
   131   170   171    2
   132   170   174    1
   133   143   145   ar
   134   144   146   ar
   135   145   146   ar
   136   174   175    2
   137    60    61    1
   138    60    63    1
   139   113   112    2
   140   182   179    1
   141   182   183    1
   142    61    62    2
   143    65    63    1
   144   179   178    1
   145   179   180    1
   146   175   176    1
   147    63    64    1
   148   181   180    2
   149   183   184    1
   150   117   115   ar
   151   112   111    1
   152   184   178    1
   153   114   115    1
   154   114   111    1
   155   115   116   ar
   156   176   177    2
   157   111   110    1
   158    98    96   ar
   159    98    97   ar
   160    96    94   ar
   161    97    95   ar
   162    94    93   ar
   163    95    93   ar
   164    93    92    1
   165   102   101    2
   166   101   100    1
   167    92    89    1
   168   100    99    1
   169   100   103    1
   170    91    90    2
   171    90    99   am
   172    90    89    1
   173    89    88    1
   174   103   104    1
   175   104   105    1
   176   108   107    1
   177   105   106    1
   178   107   106    2
   179   107   109    1
