@<TRIPOS>MOLECULE
tmp/1czzA00.pdb
 186 183 0 0 0
SMALL
GASTEIGER

@<TRIPOS>ATOM
      1  N        -22.0300   20.3730   16.7200 N.3    60  PRO60      -0.2116
      2  CA       -21.9280   20.6790   18.1440 C.3    60  PRO60       0.1372
      3  C        -20.7300   20.0640   18.8910 C.2    60  PRO60       0.2244
      4  O        -20.0670   20.7530   19.6630 O.2    60  PRO60      -0.2868
      5  CB       -23.2800   20.1960   18.6740 C.3    60  PRO60       0.0268
      6  CG       -23.6050   19.0610   17.7390 C.3    60  PRO60       0.0207
      7  CD       -23.3220   19.7260   16.4400 C.3    60  PRO60       0.0892
      8  N        -15.6500   13.7890   18.7840 N.3    63  PHE63      -0.1241
      9  CA       -15.1520   12.6670   19.5720 C.3    63  PHE63       0.1605
     10  C        -13.6660   12.5340   19.2770 C.2    63  PHE63       0.2264
     11  O        -13.2170   12.8710   18.1780 O.2    63  PHE63      -0.2867
     12  CB       -15.8170   11.3410   19.1910 C.3    63  PHE63       0.0534
     13  CG       -17.1960   11.1460   19.7640 C.ar   63  PHE63      -0.0203
     14  CD1      -18.3290   11.3850   18.9940 C.ar   63  PHE63      -0.0042
     15  CD2      -17.3540   10.6840   21.0690 C.ar   63  PHE63      -0.0042
     16  CE1      -19.5960   11.1640   19.5130 C.ar   63  PHE63      -0.0003
     17  CE2      -18.6100   10.4630   21.5970 C.ar   63  PHE63      -0.0003
     18  CZ       -19.7390   10.7020   20.8170 C.ar   63  PHE63      -0.0000
     19  N        -14.8640   13.7600   24.4920 N.3    79  ARG79      -0.1245
     20  CA       -15.8220   14.4040   23.5980 C.3    79  ARG79       0.1563
     21  C        -15.8380   15.8810   23.9340 C.2    79  ARG79       0.2260
     22  O        -15.9690   16.2520   25.0950 O.2    79  ARG79      -0.2867
     23  CB       -17.2270   13.8370   23.7570 C.3    79  ARG79       0.0307
     24  CG       -18.1200   14.2570   22.5980 C.3    79  ARG79       0.0489
     25  CD       -19.5240   13.6860   22.6910 C.3    79  ARG79       0.2205
     26  NE       -20.2590   13.8560   21.4360 N.pl3  79  ARG79      -0.0865
     27  CZ       -21.5410   13.5490   21.2720 C.cat  79  ARG79       0.5346
     28  NH1      -22.2520   13.0560   22.2820 N.pl3  79  ARG79       0.1354
     29  NH2      -22.1110   13.7130   20.0870 N.pl3  79  ARG79       0.1354
     30  N        -17.2750   19.9730   23.0150 N.3    81  TYR81      -0.1241
     31  CA       -18.2300   20.8940   22.4100 C.3    81  TYR81       0.1605
     32  C        -17.5090   22.2200   22.3590 C.2    81  TYR81       0.2264
     33  O        -17.5070   22.9440   23.3480 O.2    81  TYR81      -0.2867
     34  CB       -19.4810   21.0570   23.2740 C.3    81  TYR81       0.0534
     35  CG       -20.3600   19.8390   23.3410 C.ar   81  TYR81      -0.0201
     36  CD1      -19.9740   18.7100   24.0710 C.ar   81  TYR81      -0.0009
     37  CD2      -21.5890   19.8090   22.6710 C.ar   81  TYR81      -0.0009
     38  CE1      -20.7960   17.5760   24.1390 C.ar   81  TYR81       0.0417
     39  CE2      -22.4240   18.6800   22.7310 C.ar   81  TYR81       0.0417
     40  CZ       -22.0210   17.5700   23.4650 C.ar   81  TYR81       0.1957
     41  OH       -22.8480   16.4710   23.5260 O.3    81  TYR81      -0.2866
     42  N        -22.0400   22.9490   26.0490 N.3    85  ASP85      -0.1225
     43  CA       -23.1380   21.9970   26.1820 C.3    85  ASP85       0.1805
     44  C        -23.7610   22.2340   27.5480 C.2    85  ASP85       0.2598
     45  O        -23.0530   22.5710   28.5000 O.2    85  ASP85      -0.2718
     46  CB       -22.6420   20.5490   26.1340 C.3    85  ASP85       0.1424
     47  CG       -23.7690   19.5310   26.3670 C.2    85  ASP85       0.3668
     48  OD1      -24.5930   19.3210   25.4440 O.co2  85  ASP85      -0.2456
     49  OD2      -23.8410   18.9550   27.4780 O.co2  85  ASP85      -0.2456
     50  N        -25.0760   22.0420   27.6400 N.am   86  GLY86      -0.1942
     51  CA       -25.7760   22.2380   28.8970 C.3    86  GLY86       0.2014
     52  C        -25.5450   23.6250   29.4670 C.2    86  GLY86       0.2639
     53  O        -25.7060   24.6370   28.7770 O.2    86  GLY86      -0.2714
     54  N        -25.1480   23.6670   30.7320 N.am   87  THR87      -0.1950
     55  CA       -24.8950   24.9310   31.4190 C.3    87  THR87       0.1897
     56  C        -23.8900   25.8730   30.7290 C.2    87  THR87       0.2313
     57  O        -23.9990   27.0960   30.8380 O.2    87  THR87      -0.2863
     58  CB       -24.4330   24.6670   32.8700 C.3    87  THR87       0.1794
     59  OG1      -23.3240   23.7550   32.8620 O.3    87  THR87      -0.2208
     60  CG2      -25.5760   24.0750   33.6890 C.3    87  THR87       0.0378
     61  N        -23.4820   26.2460   27.4580 N.3    89  ARG89      -0.1245
     62  CA       -23.8750   26.5390   26.0750 C.3    89  ARG89       0.1563
     63  C        -23.5690   27.9860   25.6590 C.2    89  ARG89       0.2260
     64  O        -24.0570   28.9380   26.2710 O.2    89  ARG89      -0.2867
     65  CB       -25.3660   26.2430   25.8800 C.3    89  ARG89       0.0307
     66  CG       -25.8410   26.4980   24.4720 C.3    89  ARG89       0.0489
     67  CD       -25.3010   25.4630   23.4550 C.3    89  ARG89       0.2205
     68  NE       -25.2190   24.0910   24.0060 N.pl3  89  ARG89      -0.0865
     69  CZ       -26.0560   23.0890   23.6810 C.cat  89  ARG89       0.5346
     70  NH1      -27.0360   23.2640   22.7870 N.pl3  89  ARG89       0.1354
     71  NH2      -25.9220   21.8920   24.2770 N.pl3  89  ARG89       0.1354
     72  N        -15.8320   16.2810   27.9050 N.3    96  PHE96      -0.1241
     73  CA       -16.3400   15.0880   28.5600 C.3    96  PHE96       0.1605
     74  C        -15.4750   13.8340   28.4230 C.2    96  PHE96       0.2264
     75  O        -14.6690   13.7020   27.5060 O.2    96  PHE96      -0.2867
     76  CB       -17.7690   14.7890   28.0770 C.3    96  PHE96       0.0534
     77  CG       -18.7280   15.9310   28.2920 C.ar   96  PHE96      -0.0203
     78  CD1      -18.7620   17.0070   27.4130 C.ar   96  PHE96      -0.0042
     79  CD2      -19.5520   15.9620   29.4120 C.ar   96  PHE96      -0.0042
     80  CE1      -19.5970   18.0970   27.6420 C.ar   96  PHE96      -0.0003
     81  CE2      -20.3920   17.0530   29.6520 C.ar   96  PHE96      -0.0003
     82  CZ       -20.4110   18.1210   28.7610 C.ar   96  PHE96      -0.0000
     83  N        -11.8820   14.8010   38.4930 N.3   133  PHE133     -0.1227
     84  CA       -13.0700   14.2600   39.1420 C.3   133  PHE133      0.1736
     85  C        -13.0100   12.7560   39.3690 C.2   133  PHE133      0.2595
     86  O        -12.1880   12.0540   38.7820 O.2   133  PHE133     -0.2718
     87  CB       -14.3160   14.5780   38.3110 C.3   133  PHE133      0.0547
     88  CG       -14.3810   13.8490   36.9890 C.ar  133  PHE133     -0.0202
     89  CD1      -14.5330   12.4700   36.9400 C.ar  133  PHE133     -0.0042
     90  CD2      -14.3100   14.5520   35.7860 C.ar  133  PHE133     -0.0042
     91  CE1      -14.6190   11.8050   35.7210 C.ar  133  PHE133     -0.0003
     92  CE2      -14.3940   13.8940   34.5570 C.ar  133  PHE133     -0.0003
     93  CZ       -14.5480   12.5270   34.5240 C.ar  133  PHE133     -0.0000
     94  N        -13.9020   12.2750   40.2270 N.am  134  ARG134     -0.1966
     95  CA       -14.0170   10.8530   40.5180 C.3   134  ARG134      0.1714
     96  C        -15.3920   10.4500   40.0390 C.2   134  ARG134      0.2458
     97  O        -16.3810   11.1230   40.3220 O.2   134  ARG134     -0.2730
     98  CB       -13.8590   10.5790   42.0140 C.3   134  ARG134      0.0347
     99  CG       -12.4330   10.7860   42.4760 C.3   134  ARG134      0.0492
    100  CD       -12.2100   10.4200   43.9150 C.3   134  ARG134      0.2205
    101  NE       -10.7930   10.5140   44.2370 N.pl3 134  ARG134     -0.0865
    102  CZ        -9.8500    9.7950   43.6360 C.cat 134  ARG134      0.5346
    103  NH1      -10.1840    8.9320   42.6890 N.pl3 134  ARG134      0.1354
    104  NH2       -8.5740    9.9500   43.9740 N.pl3 134  ARG134      0.1354
    105  N        -15.4790    9.3300   39.3240 N.am  135  PRO135     -0.2716
    106  CA       -16.7430    8.8350   38.7850 C.3   135  PRO135      0.1536
    107  C        -17.9010    8.7730   39.7710 C.2   135  PRO135      0.2598
    108  O        -17.7200    8.4940   40.9550 O.2   135  PRO135     -0.2715
    109  CB       -16.3550    7.4590   38.2490 C.3   135  PRO135      0.0310
    110  CG       -14.9200    7.6940   37.7990 C.3   135  PRO135      0.0237
    111  CD       -14.3960    8.3750   39.0350 C.3   135  PRO135      0.0939
    112  N        -19.0930    9.0580   39.2600 N.am  136  ASP136     -0.1972
    113  CA       -20.3140    8.9980   40.0460 C.3   136  ASP136      0.1709
    114  C        -20.8300    7.5710   39.9080 C.2   136  ASP136      0.2293
    115  O        -21.6920    7.2840   39.0770 O.2   136  ASP136     -0.2864
    116  CB       -21.3440    9.9990   39.5070 C.3   136  ASP136      0.1436
    117  CG       -22.7030    9.8570   40.1810 C.2   136  ASP136      0.3671
    118  OD1      -22.7350    9.6660   41.4120 O.co2 136  ASP136     -0.2456
    119  OD2      -23.7380    9.9580   39.4840 O.co2 136  ASP136     -0.2456
    120  N        -24.0790    6.7340   38.4630 N.3   139  SER139     -0.1202
    121  CA       -24.3990    7.2430   37.1290 C.3   139  SER139      0.2020
    122  C        -24.2470    6.1100   36.1080 C.2   139  SER139      0.2619
    123  O        -23.4070    5.2240   36.2880 O.2   139  SER139     -0.2717
    124  CB       -23.4570    8.3940   36.7750 C.3   139  SER139      0.2103
    125  OG       -23.7710    8.9410   35.5040 O.3   139  SER139     -0.2182
    126  N        -25.0450    6.1200   35.0430 N.am  140  SER140     -0.1937
    127  CA       -24.9300    5.0440   34.0620 C.3   140  SER140      0.2055
    128  C        -23.6790    5.2270   33.2190 C.2   140  SER140      0.2644
    129  O        -23.2060    4.2830   32.5920 O.2   140  SER140     -0.2714
    130  CB       -26.1850    4.9500   33.1640 C.3   140  SER140      0.2130
    131  OG       -26.3540    6.0820   32.3280 O.3   140  SER140     -0.2179
    132  N        -23.1310    6.4390   33.2320 N.am  141  SER141     -0.1935
    133  CA       -21.9240    6.7390   32.4740 C.3   141  SER141      0.2055
    134  C        -20.7460    5.8460   32.8420 C.2   141  SER141      0.2643
    135  O        -19.8310    5.6750   32.0320 O.2   141  SER141     -0.2714
    136  CB       -21.5080    8.2010   32.6710 C.3   141  SER141      0.2130
    137  OG       -22.3920    9.0970   32.0200 O.3   141  SER141     -0.2179
    138  N        -20.7550    5.2790   34.0490 N.am  142  PHE142     -0.1973
    139  CA       -19.6440    4.4300   34.4670 C.3   142  PHE142      0.1639
    140  C        -20.0180    2.9630   34.7190 C.2   142  PHE142      0.2290
    141  O        -19.2820    2.2070   35.3670 O.2   142  PHE142     -0.2864
    142  CB       -18.9660    5.0350   35.7000 C.3   142  PHE142      0.0560
    143  CG       -18.5630    6.4840   35.5170 C.ar  142  PHE142     -0.0200
    144  CD1      -19.4330    7.5120   35.8700 C.ar  142  PHE142     -0.0042
    145  CD2      -17.3510    6.8170   34.9140 C.ar  142  PHE142     -0.0042
    146  CE1      -19.1060    8.8510   35.6250 C.ar  142  PHE142     -0.0003
    147  CE2      -17.0160    8.1550   34.6630 C.ar  142  PHE142     -0.0003
    148  CZ       -17.8940    9.1680   35.0170 C.ar  142  PHE142     -0.0000
    149  N        -21.0890    4.9990   26.4650 N.3   150  ASN150     -0.1225
    150  CA       -22.0350    5.3820   27.4910 C.3   150  ASN150      0.1785
    151  C        -22.2550    6.8790   27.3050 C.2   150  ASN150      0.2597
    152  O        -21.7150    7.4740   26.3630 O.2   150  ASN150     -0.2718
    153  CB       -21.4860    5.1270   28.8910 C.3   150  ASN150      0.1169
    154  CG       -21.3520    3.6710   29.1990 C.2   150  ASN150      0.2627
    155  OD1      -22.1640    2.8590   28.7650 O.2   150  ASN150     -0.2716
    156  ND2      -20.3440    3.3270   29.9900 N.am  150  ASN150     -0.0877
    157  N        -23.0630    7.4730   28.1870 N.am  151  ILE151     -0.1966
    158  CA       -23.3370    8.9070   28.1480 C.3   151  ILE151      0.1727
    159  C        -22.0210    9.5280   28.5670 C.2   151  ILE151      0.2616
    160  O        -21.3650    9.0280   29.4780 O.2   151  ILE151     -0.2715
    161  CB       -24.3810    9.3520   29.2160 C.3   151  ILE151      0.0290
    162  CG1      -25.6810    8.5360   29.1120 C.3   151  ILE151      0.0022
    163  CG2      -24.6660   10.8390   29.0600 C.3   151  ILE151      0.0023
    164  CD1      -26.5320    8.8280   27.9280 C.3   151  ILE151      0.0001
    165  N        -21.6280   10.6110   27.9070 N.am  152  ALA152     -0.1963
    166  CA       -20.3900   11.2870   28.2600 C.3   152  ALA152      0.1728
    167  C        -20.6300   12.0620   29.5500 C.2   152  ALA152      0.2617
    168  O        -21.7220   12.5870   29.7830 O.2   152  ALA152     -0.2715
    169  CB       -19.9660   12.2360   27.1520 C.3   152  ALA152      0.0334
    170  N        -19.6110   12.1230   30.3940 N.am  153  SER153     -0.1936
    171  CA       -19.7290   12.8320   31.6630 C.3   153  SER153      0.2058
    172  C        -18.4460   13.6290   31.8990 C.2   153  SER153      0.2682
    173  O        -17.3480   13.1500   31.6430 O.2   153  SER153     -0.2710
    174  CB       -19.9660   11.8190   32.7890 C.3   153  SER153      0.2130
    175  OG       -20.1750   12.4640   34.0240 O.3   153  SER153     -0.2179
    176  N        -18.5720   14.8590   32.3710 N.am  154  GLY154     -0.1729
    177  CA       -17.3750   15.6360   32.5970 C.2   154  GLY154      0.1340
    178  C        -17.5650   17.0600   33.0630 C.2   154  GLY154      0.2521
    179  O        -18.2860   17.3140   34.0290 O.2   154  GLY154     -0.2816
    180  N        -18.9250   20.4990   31.7370 N.3   156  PRO156     -0.2116
    181  CA       -19.6640   21.3350   30.7910 C.3   156  PRO156      0.1372
    182  C        -19.1750   22.7860   30.8580 C.2   156  PRO156      0.2244
    183  O        -19.2800   23.5310   29.8830 O.2   156  PRO156     -0.2868
    184  CB       -21.1040   21.1560   31.2570 C.3   156  PRO156      0.0268
    185  CG       -20.9360   21.0170   32.7410 C.3   156  PRO156      0.0207
    186  CD       -19.8490   19.9710   32.7560 C.3   156  PRO156      0.0892
@<TRIPOS>BOND
     1     7     1    1
     2     7     6    1
     3     1     2    1
     4     6     5    1
     5     2     5    1
     6     2     3    1
     7    11    10    2
     8     8     9    1
     9     3     4    2
    10    14    16   ar
    11    14    13   ar
    12    12     9    1
    13    12    13    1
    14    10     9    1
    15    16    18   ar
    16    13    15   ar
    17    29    27    1
    18    18    17   ar
    19    15    17   ar
    20    27    26    2
    21    27    28    1
    22    26    25    1
    23    32    31    1
    24    32    33    2
    25    31    30    1
    26    31    34    1
    27    24    25    1
    28    24    23    1
    29    37    39   ar
    30    37    35   ar
    31    39    40   ar
    32    70    69    1
    33    34    35    1
    34    35    36   ar
    35    67    68    1
    36    67    66    1
    37    40    41    1
    38    40    38   ar
    39    20    23    1
    40    20    21    1
    41    20    19    1
    42    69    68    2
    43    69    71    1
    44    21    22    2
    45    36    38   ar
    46    66    65    1
    47    48    47   ar
    48    63    62    1
    49    63    64    2
    50    65    62    1
    51    42    43    1
    52    62    61    1
    53    46    43    1
    54    46    47    1
    55    43    44    1
    56   152   151    2
    57    47    49   ar
    58   149   150    1
    59   169   166    1
    60   151   150    1
    61   151   157   am
    62    78    80   ar
    63    78    77   ar
    64   150   153    1
    65    75    74    2
    66    44    50   am
    67    44    45    2
    68    50    51    1
    69    80    82   ar
    70    72    73    1
    71   165   166    1
    72   165   159   am
    73   164   162    1
    74    76    77    1
    75    76    73    1
    76   158   157    1
    77   158   159    1
    78   158   161    1
    79   166   167    1
    80    77    79   ar
    81    74    73    1
    82   159   160    2
    83    82    81   ar
    84   155   154    2
    85    53    52    2
    86   153   154    1
    87    51    52    1
    88   163   161    1
    89   162   161    1
    90   154   156   am
    91    79    81   ar
    92    52    54   am
    93   167   168    2
    94   167   170   am
    95   183   182    2
    96   170   171    1
    97    56    57    2
    98    56    55    1
    99    54    55    1
   100   181   182    1
   101   181   184    1
   102   181   180    1
   103   184   185    1
   104    55    58    1
   105   173   172    2
   106   171   172    1
   107   171   174    1
   108   180   186    1
   109   172   176    1
   110   137   136    1
   111   135   134    2
   112   131   130    1
   113   176   177    2
   114   133   136    1
   115   133   134    1
   116   133   132    1
   117   129   128    2
   118   177   178    1
   119   185   186    1
   120   174   175    1
   121   134   138   am
   122    59    58    1
   123    58    60    1
   124   178   179    2
   125   130   127    1
   126   128   132   am
   127   128   127    1
   128   138   139    1
   129   127   126    1
   130   139   140    1
   131   139   142    1
   132    93    92   ar
   133    93    91   ar
   134    92    90   ar
   135   147   145   ar
   136   147   148   ar
   137   140   141    2
   138   145   143   ar
   139   148   146   ar
   140   126   122   am
   141   125   124    1
   142   143   142    1
   143   143   144   ar
   144   146   144   ar
   145    91    89   ar
   146    90    88   ar
   147   122   123    2
   148   122   121    1
   149   124   121    1
   150    89    88   ar
   151    88    87    1
   152   121   120    1
   153   110   109    1
   154   110   111    1
   155   109   106    1
   156    87    84    1
   157    83    84    1
   158    86    85    2
   159   106   105    1
   160   106   107    1
   161   111   105    1
   162   115   114    2
   163    84    85    1
   164   112   107   am
   165   112   113    1
   166   105    96   am
   167    85    94   am
   168   119   117   ar
   169   116   113    1
   170   116   117    1
   171   107   108    2
   172   114   113    1
   173    96    97    2
   174    96    95    1
   175   117   118   ar
   176    94    95    1
   177    95    98    1
   178    98    99    1
   179    99   100    1
   180   103   102    1
   181   102   104    1
   182   102   101    2
   183   100   101    1
