@<TRIPOS>MOLECULE
tmp/1d00H00.pdb
 161 158 0 0 0
SMALL
GASTEIGER

@<TRIPOS>ATOM
      1  N         24.8530   63.3870    4.7060 N.3    60  ARG60      -0.1245
      2  CA        24.4810   64.1950    5.8630 C.3    60  ARG60       0.1563
      3  C         23.1480   63.6840    6.3750 C.2    60  ARG60       0.2260
      4  O         22.1720   63.6070    5.6300 O.2    60  ARG60      -0.2867
      5  CB        24.3500   65.6680    5.5150 C.3    60  ARG60       0.0307
      6  CG        24.3230   66.5310    6.7610 C.3    60  ARG60       0.0489
      7  CD        24.1660   67.9910    6.4240 C.3    60  ARG60       0.2205
      8  NE        24.6600   68.8490    7.4980 N.pl3  60  ARG60      -0.0865
      9  CZ        24.5860   70.1750    7.4710 C.cat  60  ARG60       0.5346
     10  NH1       24.0350   70.7790    6.4250 N.pl3  60  ARG60       0.1354
     11  NH2       25.1030   70.8960    8.4590 N.pl3  60  ARG60       0.1354
     12  N         20.0640   63.7440    9.5240 N.3    62  TYR62      -0.1241
     13  CA        19.4150   64.4760   10.6130 C.3    62  TYR62       0.1605
     14  C         18.7830   63.3750   11.4490 C.2    62  TYR62       0.2264
     15  O         17.7800   62.7850   11.0440 O.2    62  TYR62      -0.2867
     16  CB        18.3320   65.4170   10.0830 C.3    62  TYR62       0.0534
     17  CG        18.8450   66.5970    9.2910 C.ar   62  TYR62      -0.0201
     18  CD1       19.4350   66.4320    8.0350 C.ar   62  TYR62      -0.0009
     19  CD2       18.7370   67.8920    9.8050 C.ar   62  TYR62      -0.0009
     20  CE1       19.9100   67.5440    7.3070 C.ar   62  TYR62       0.0417
     21  CE2       19.2000   68.9940    9.1020 C.ar   62  TYR62       0.0417
     22  CZ        19.7860   68.8220    7.8540 C.ar   62  TYR62       0.1957
     23  OH        20.2470   69.9290    7.1700 O.3    62  TYR62      -0.2866
     24  N         14.3770   66.4280    9.1290 N.3    66  ASP66      -0.1225
     25  CA        14.5600   67.7420    8.5120 C.3    66  ASP66       0.1805
     26  C         13.3420   68.0400    7.6420 C.2    66  ASP66       0.2598
     27  O         12.7890   67.1330    7.0050 O.2    66  ASP66      -0.2718
     28  CB        15.8080   67.7640    7.6270 C.3    66  ASP66       0.1424
     29  CG        15.9470   69.0720    6.8570 C.2    66  ASP66       0.3668
     30  OD1       16.1740   70.1180    7.5030 O.co2  66  ASP66      -0.2456
     31  OD2       15.8010   69.0590    5.6080 O.co2  66  ASP66      -0.2456
     32  N         12.9280   69.3030    7.6170 N.am   67  GLY67      -0.1957
     33  CA        11.7760   69.6860    6.8210 C.3    67  GLY67       0.1869
     34  C         10.5610   68.8030    7.0670 C.2    67  GLY67       0.2309
     35  O         10.1400   68.6150    8.2170 O.2    67  GLY67      -0.2863
     36  N         10.8870   66.3140    9.9810 N.3    70  ARG70      -0.1245
     37  CA        11.3210   66.7800   11.3010 C.3    70  ARG70       0.1563
     38  C         10.5030   66.1680   12.4320 C.2    70  ARG70       0.2260
     39  O          9.2710   66.2120   12.4240 O.2    70  ARG70      -0.2867
     40  CB        11.2330   68.3090   11.3720 C.3    70  ARG70       0.0307
     41  CG        11.9470   68.8700   12.6000 C.3    70  ARG70       0.0489
     42  CD        11.8310   70.3670   12.6980 C.3    70  ARG70       0.2205
     43  NE        12.1960   71.0350   11.4570 N.pl3  70  ARG70      -0.0865
     44  CZ        13.4420   71.2670   11.0620 C.cat  70  ARG70       0.5346
     45  NH1       14.4680   70.8810   11.8090 N.pl3  70  ARG70       0.1354
     46  NH2       13.6540   71.9210    9.9280 N.pl3  70  ARG70       0.1354
     47  N         20.6230   62.7410    3.4860 N.3    77  PHE77      -0.1241
     48  CA        20.9420   63.4520    2.2470 C.3    77  PHE77       0.1605
     49  C         22.3380   63.1440    1.6680 C.2    77  PHE77       0.2264
     50  O         23.2880   62.8140    2.3910 O.2    77  PHE77      -0.2867
     51  CB        20.8290   64.9730    2.4450 C.3    77  PHE77       0.0534
     52  CG        19.5110   65.4300    3.0110 C.ar   77  PHE77      -0.0203
     53  CD1       19.2730   65.3930    4.3840 C.ar   77  PHE77      -0.0042
     54  CD2       18.5050   65.9050    2.1680 C.ar   77  PHE77      -0.0042
     55  CE1       18.0570   65.8240    4.9040 C.ar   77  PHE77      -0.0003
     56  CE2       17.2820   66.3390    2.6800 C.ar   77  PHE77      -0.0003
     57  CZ        17.0570   66.3010    4.0540 C.ar   77  PHE77      -0.0000
     58  N         17.4420   57.5540   -5.9740 N.3   114  PHE114     -0.1227
     59  CA        16.9800   58.6250   -6.8360 C.3   114  PHE114      0.1736
     60  C         17.9990   58.9370   -7.9080 C.2   114  PHE114      0.2595
     61  O         19.1870   58.6170   -7.7810 O.2   114  PHE114     -0.2718
     62  CB        16.7330   59.8950   -6.0140 C.3   114  PHE114      0.0547
     63  CG        17.9700   60.4020   -5.2940 C.ar  114  PHE114     -0.0202
     64  CD1       19.0090   61.0100   -5.9960 C.ar  114  PHE114     -0.0042
     65  CD2       18.1060   60.2250   -3.9150 C.ar  114  PHE114     -0.0042
     66  CE1       20.1670   61.4370   -5.3360 C.ar  114  PHE114     -0.0003
     67  CE2       19.2560   60.6430   -3.2430 C.ar  114  PHE114     -0.0003
     68  CZ        20.2880   61.2510   -3.9520 C.ar  114  PHE114     -0.0000
     69  N         17.5170   59.5390   -8.9820 N.am  115  ARG115     -0.1966
     70  CA        18.4040   59.9760  -10.0310 C.3   115  ARG115      0.1714
     71  C         18.4100   61.4760   -9.8220 C.2   115  ARG115      0.2458
     72  O         17.3630   62.0830   -9.6080 O.2   115  ARG115     -0.2730
     73  CB        17.8920   59.5440  -11.4070 C.3   115  ARG115      0.0347
     74  CG        18.2040   58.0670  -11.6450 C.3   115  ARG115      0.0492
     75  CD        17.7850   57.5770  -12.9890 C.3   115  ARG115      0.2205
     76  NE        18.0810   56.1530  -13.1350 N.pl3 115  ARG115     -0.0865
     77  CZ        19.2830   55.6500  -13.3760 C.cat 115  ARG115      0.5346
     78  NH1       20.3310   56.4450  -13.5110 N.pl3 115  ARG115      0.1354
     79  NH2       19.4330   54.3420  -13.4840 N.pl3 115  ARG115      0.1354
     80  N         19.5980   62.0910   -9.8610 N.am  116  PRO116     -0.2716
     81  CA        19.8000   63.5300   -9.6610 C.3   116  PRO116      0.1536
     82  C         18.9310   64.4840  -10.4560 C.2   116  PRO116      0.2598
     83  O         18.6690   64.2640  -11.6440 O.2   116  PRO116     -0.2715
     84  CB        21.2810   63.7090   -9.9840 C.3   116  PRO116      0.0310
     85  CG        21.8620   62.3990   -9.5230 C.3   116  PRO116      0.0237
     86  CD        20.8820   61.4510  -10.1910 C.3   116  PRO116      0.0939
     87  N         18.4920   65.5470   -9.7790 N.am  117  ASP117     -0.1972
     88  CA        17.6960   66.6170  -10.3780 C.3   117  ASP117      0.1709
     89  C         18.7810   67.5300  -10.9570 C.2   117  ASP117      0.2293
     90  O         19.3630   68.3600  -10.2470 O.2   117  ASP117     -0.2864
     91  CB        16.9310   67.3870   -9.2880 C.3   117  ASP117      0.1436
     92  CG        15.9580   68.4060   -9.8570 C.2   117  ASP117      0.3671
     93  OD1       16.2290   68.9980  -10.9310 O.co2 117  ASP117     -0.2456
     94  OD2       14.9170   68.6280   -9.2060 O.co2 117  ASP117     -0.2456
     95  N         19.1520   71.2790  -10.3370 N.3   120  SER120     -0.1202
     96  CA        19.3930   71.6970   -8.9660 C.3   120  SER120      0.2020
     97  C         20.8240   72.1410   -8.6950 C.2   120  SER120      0.2619
     98  O         21.7830   71.5950   -9.2560 O.2   120  SER120     -0.2717
     99  CB        19.0350   70.5620   -8.0110 C.3   120  SER120      0.2103
    100  OG        19.3020   70.9220   -6.6690 O.3   120  SER120     -0.2182
    101  N         20.9570   73.1310   -7.8150 N.am  121  SER121     -0.1937
    102  CA        22.2660   73.6580   -7.4260 C.3   121  SER121      0.2055
    103  C         23.0440   72.6020   -6.6380 C.2   121  SER121      0.2644
    104  O         24.2540   72.7240   -6.4300 O.2   121  SER121     -0.2714
    105  CB        22.0980   74.9100   -6.5610 C.3   121  SER121      0.2130
    106  OG        21.3640   74.6360   -5.3680 O.3   121  SER121     -0.2179
    107  N         22.3400   71.5680   -6.1960 N.am  122  SER122     -0.1935
    108  CA        22.9620   70.5000   -5.4280 C.3   122  SER122      0.2055
    109  C         23.8810   69.6360   -6.2940 C.2   122  SER122      0.2643
    110  O         24.8220   69.0170   -5.7910 O.2   122  SER122     -0.2714
    111  CB        21.8790   69.6290   -4.7710 C.3   122  SER122      0.2130
    112  OG        21.1230   70.3680   -3.8210 O.3   122  SER122     -0.2179
    113  N         23.6330   69.6030   -7.6010 N.am  123  PHE123     -0.1973
    114  CA        24.4570   68.7800   -8.4680 C.3   123  PHE123      0.1639
    115  C         25.3580   69.5310   -9.4430 C.2   123  PHE123      0.2290
    116  O         26.0450   68.9060  -10.2610 O.2   123  PHE123     -0.2864
    117  CB        23.5700   67.7760   -9.2060 C.3   123  PHE123      0.0560
    118  CG        22.6810   66.9900   -8.2850 C.ar  123  PHE123     -0.0200
    119  CD1       21.3600   67.3810   -8.0640 C.ar  123  PHE123     -0.0042
    120  CD2       23.1910   65.9170   -7.5600 C.ar  123  PHE123     -0.0042
    121  CE1       20.5600   66.7160   -7.1320 C.ar  123  PHE123     -0.0003
    122  CE2       22.4070   65.2480   -6.6300 C.ar  123  PHE123     -0.0003
    123  CZ        21.0870   65.6470   -6.4120 C.ar  123  PHE123     -0.0000
    124  N         28.0030   71.3920   -1.6970 N.3   131  ASN131     -0.1225
    125  CA        26.8070   71.9830   -2.2790 C.3   131  ASN131      0.1785
    126  C         25.7110   71.7440   -1.2360 C.2   131  ASN131      0.2597
    127  O         25.9590   71.1150   -0.2100 O.2   131  ASN131     -0.2718
    128  CB        26.3800   71.2860   -3.5830 C.3   131  ASN131      0.1169
    129  CG        27.3200   71.5610   -4.7510 C.2   131  ASN131      0.2627
    130  OD1       27.8410   72.6680   -4.9090 O.2   131  ASN131     -0.2716
    131  ND2       27.4980   70.5570   -5.6060 N.am  131  ASN131     -0.0877
    132  N         24.5100   72.2400   -1.4980 N.am  132  ILE132     -0.1966
    133  CA        23.3900   72.0200   -0.5960 C.3   132  ILE132      0.1727
    134  C         23.0290   70.5410   -0.6890 C.2   132  ILE132      0.2616
    135  O         22.8430   70.0080   -1.7850 O.2   132  ILE132     -0.2715
    136  CB        22.1640   72.8620   -1.0060 C.3   132  ILE132      0.0290
    137  CG1       22.4890   74.3460   -0.8260 C.3   132  ILE132      0.0022
    138  CG2       20.9320   72.4340   -0.1920 C.3   132  ILE132      0.0023
    139  CD1       21.3470   75.2570   -1.1100 C.3   132  ILE132      0.0001
    140  N         22.9320   69.8810    0.4580 N.am  133  ALA133     -0.1963
    141  CA        22.6090   68.4550    0.4690 C.3   133  ALA133      0.1728
    142  C         21.2280   68.1710   -0.1330 C.2   133  ALA133      0.2617
    143  O         20.2890   68.9480    0.0450 O.2   133  ALA133     -0.2715
    144  CB        22.6830   67.9130    1.8940 C.3   133  ALA133      0.0334
    145  N         21.1060   67.0600   -0.8530 N.am  134  SER134     -0.1936
    146  CA        19.8270   66.7130   -1.4530 C.3   134  SER134      0.2058
    147  C         19.5640   65.2260   -1.2490 C.2   134  SER134      0.2682
    148  O         20.4780   64.4000   -1.3510 O.2   134  SER134     -0.2710
    149  CB        19.8230   67.0730   -2.9420 C.3   134  SER134      0.2130
    150  OG        18.5390   66.8990   -3.5080 O.3   134  SER134     -0.2179
    151  N         18.3220   64.8830   -0.9400 N.am  135  GLY135     -0.1729
    152  CA        18.0360   63.4870   -0.7110 C.2   135  GLY135      0.1340
    153  C         16.6410   63.0910   -0.2860 C.2   135  GLY135      0.2521
    154  O         15.6610   63.4380   -0.9420 O.2   135  GLY135     -0.2816
    155  N         14.0660   63.3090    2.8380 N.3   137  PRO137     -0.2116
    156  CA        13.5730   63.8750    4.1010 C.3   137  PRO137      0.1372
    157  C         12.7900   62.8500    4.9210 C.2   137  PRO137      0.2244
    158  O         12.7820   62.8970    6.1550 O.2   137  PRO137     -0.2868
    159  CB        12.6800   65.0220    3.6330 C.3   137  PRO137      0.0268
    160  CG        13.2810   65.3890    2.2890 C.3   137  PRO137      0.0207
    161  CD        13.4570   64.0200    1.7030 C.3   137  PRO137      0.0892
@<TRIPOS>BOND
     1    78    77    1
     2    79    77    1
     3    77    76    2
     4    76    75    1
     5    75    74    1
     6    74    73    1
     7    83    82    2
     8    73    70    1
     9    89    88    1
    10    89    90    2
    11    93    92   ar
    12    82    87   am
    13    82    81    1
    14    88    87    1
    15    88    91    1
    16    95    96    1
    17   116   115    2
    18    86    80    1
    19    86    85    1
    20    70    71    1
    21    70    69    1
    22    84    81    1
    23    84    85    1
    24    80    71   am
    25    80    81    1
    26    92    91    1
    27    92    94   ar
    28    71    72    2
    29   115   114    1
    30    98    97    2
    31   117   114    1
    32   117   118    1
    33    69    60   am
    34    96    97    1
    35    96    99    1
    36    97   101   am
    37   114   113    1
    38   118   119   ar
    39   118   120   ar
    40   119   121   ar
    41    99   100    1
    42    60    61    2
    43    60    59    1
    44   101   102    1
    45   113   109   am
    46   120   122   ar
    47   102   103    1
    48   102   105    1
    49   121   123   ar
    50    59    62    1
    51    59    58    1
    52   103   104    2
    53   103   107   am
    54   122   123   ar
    55   105   106    1
    56   109   110    2
    57   109   108    1
    58   107   108    1
    59    62    63    1
    60    64    66   ar
    61    64    63   ar
    62   131   129   am
    63   108   111    1
    64    66    68   ar
    65    63    65   ar
    66   130   129    2
    67   111   112    1
    68   129   128    1
    69    68    67   ar
    70    65    67   ar
    71   128   125    1
    72   150   149    1
    73   149   146    1
    74   125   124    1
    75   125   126    1
    76   135   134    2
    77   132   126   am
    78   132   133    1
    79   146   147    1
    80   146   145    1
    81   148   147    2
    82   147   151    1
    83   126   127    2
    84   139   137    1
    85   136   137    1
    86   136   133    1
    87   136   138    1
    88   154   153    2
    89   151   152    2
    90   145   142   am
    91   152   153    1
    92   134   133    1
    93   134   140   am
    94   142   143    2
    95   142   141    1
    96   140   141    1
    97   141   144    1
    98    49    48    1
    99    49    50    2
   100   161   160    1
   101   161   155    1
   102    54    56   ar
   103    54    52   ar
   104    48    51    1
   105    48    47    1
   106   160   159    1
   107    51    52    1
   108    56    57   ar
   109   155   156    1
   110    52    53   ar
   111   159   156    1
   112    57    55   ar
   113   156   157    1
   114    53    55   ar
   115     1     2    1
   116   157   158    2
   117     5     2    1
   118     5     6    1
   119    31    29   ar
   120     4     3    2
   121     2     3    1
   122     7     6    1
   123     7     8    1
   124    10     9    1
   125    33    34    1
   126    33    32    1
   127    29    30   ar
   128    29    28    1
   129    27    26    2
   130    34    35    2
   131    23    22    1
   132    20    22   ar
   133    20    18   ar
   134     9     8    2
   135     9    11    1
   136    32    26   am
   137    28    25    1
   138    26    25    1
   139    22    21   ar
   140    18    17   ar
   141    25    24    1
   142    21    19   ar
   143    17    19   ar
   144    17    16    1
   145    12    13    1
   146    46    44    1
   147    36    37    1
   148    16    13    1
   149    13    14    1
   150    15    14    2
   151    44    43    2
   152    44    45    1
   153    37    40    1
   154    37    38    1
   155    40    41    1
   156    43    42    1
   157    39    38    2
   158    41    42    1
