@<TRIPOS>MOLECULE
tmp/1d0aE00.pdb
 153 148 0 0 0
SMALL
GASTEIGER

@<TRIPOS>ATOM
      1  N        -18.9690   79.7800   94.5930 N.3    60  ARG60      -0.1245
      2  CA       -17.8670   80.6720   94.2440 C.3    60  ARG60       0.1563
      3  C        -17.6570   81.5580   95.4690 C.2    60  ARG60       0.2260
      4  O        -18.6020   82.1750   95.9690 O.2    60  ARG60      -0.2867
      5  CB       -18.1820   81.5350   93.0220 C.3    60  ARG60       0.0307
      6  CG       -16.9080   82.1750   92.4430 C.3    60  ARG60       0.0489
      7  CD       -17.1550   83.0870   91.2440 C.3    60  ARG60       0.2205
      8  NE       -15.8900   83.4020   90.5740 N.pl3  60  ARG60      -0.0865
      9  CZ       -15.7420   84.3140   89.6170 C.cat  60  ARG60       0.5346
     10  NH1      -16.7770   85.0220   89.2000 N.pl3  60  ARG60       0.1354
     11  NH2      -14.5520   84.5070   89.0660 N.pl3  60  ARG60       0.1354
     12  N        -15.1620   84.5720   97.5670 N.3    62  TYR62      -0.1241
     13  CA       -14.1780   85.6490   97.4700 C.3    62  TYR62       0.1605
     14  C        -13.6020   85.7520   98.8790 C.2    62  TYR62       0.2264
     15  O        -14.2300   86.3290   99.7640 O.2    62  TYR62      -0.2867
     16  CB       -14.8300   86.9910   97.0910 C.3    62  TYR62       0.0534
     17  CG       -15.3620   87.0890   95.6710 C.ar   62  TYR62      -0.0201
     18  CD1      -16.4610   86.3380   95.2550 C.ar   62  TYR62      -0.0009
     19  CD2      -14.7630   87.9460   94.7420 C.ar   62  TYR62      -0.0009
     20  CE1      -16.9530   86.4380   93.9460 C.ar   62  TYR62       0.0417
     21  CE2      -15.2440   88.0540   93.4380 C.ar   62  TYR62       0.0417
     22  CZ       -16.3400   87.2980   93.0450 C.ar   62  TYR62       0.1957
     23  OH       -16.8200   87.4080   91.7570 O.3    62  TYR62      -0.2866
     24  N        -16.3700   90.6400   97.7520 N.3    66  ASP66      -0.1225
     25  CA       -16.8450   91.0950   96.4500 C.3    66  ASP66       0.1805
     26  C        -17.8820   92.1920   96.6670 C.2    66  ASP66       0.2598
     27  O        -18.6080   92.1850   97.6610 O.2    66  ASP66      -0.2718
     28  CB       -17.5130   89.9580   95.6780 C.3    66  ASP66       0.1424
     29  CG       -18.1700   90.4390   94.3950 C.2    66  ASP66       0.3668
     30  OD1      -17.4520   90.6710   93.4020 O.co2  66  ASP66      -0.2456
     31  OD2      -19.4090   90.6150   94.3910 O.co2  66  ASP66      -0.2456
     32  N        -17.9440   93.1330   95.7320 N.am   67  GLY67      -0.1942
     33  CA       -18.9090   94.2140   95.8200 C.3    67  GLY67       0.2014
     34  C        -18.9640   94.9050   97.1650 C.2    67  GLY67       0.2639
     35  O        -17.9510   95.3890   97.6630 O.2    67  GLY67      -0.2714
     36  N        -20.1550   94.9430   97.7480 N.am   68  THR68      -0.1950
     37  CA       -20.3740   95.5760   99.0400 C.3    68  THR68       0.1897
     38  C        -19.5210   94.9870  100.1670 C.2    68  THR68       0.2313
     39  O        -19.3790   95.6000  101.2250 O.2    68  THR68      -0.2863
     40  CB       -21.8560   95.4800   99.4440 C.3    68  THR68       0.1794
     41  OG1      -22.2490   94.1020   99.5070 O.3    68  THR68      -0.2208
     42  CG2      -22.7300   96.1990   98.4270 C.3    68  THR68       0.0378
     43  N        -16.2540   93.8300   99.5790 N.3    70  ARG70      -0.1245
     44  CA       -14.8470   93.8950   99.1940 C.3    70  ARG70       0.1563
     45  C        -13.9760   94.4440  100.3230 C.2    70  ARG70       0.2260
     46  O        -14.3070   95.4570  100.9410 O.2    70  ARG70      -0.2867
     47  CB       -14.6840   94.7600   97.9400 C.3    70  ARG70       0.0307
     48  CG       -13.2940   94.6220   97.3220 C.3    70  ARG70       0.0489
     49  CD       -13.1130   95.4980   96.1130 C.3    70  ARG70       0.2205
     50  NE       -14.1950   95.3490   95.1510 N.pl3  70  ARG70      -0.0865
     51  CZ       -14.2970   94.3540   94.2780 C.cat  70  ARG70       0.5346
     52  NH1      -13.3790   93.3970   94.2370 N.pl3  70  ARG70       0.1354
     53  NH2      -15.3090   94.3410   93.4210 N.pl3  70  ARG70       0.1354
     54  N        -21.0550   82.8810   97.0830 N.3    77  PHE77      -0.1241
     55  CA       -22.1510   82.8360   96.1180 C.3    77  PHE77       0.1605
     56  C        -22.4600   81.4370   95.5760 C.2    77  PHE77       0.2264
     57  O        -21.5900   80.5720   95.5250 O.2    77  PHE77      -0.2867
     58  CB       -21.8560   83.7440   94.9180 C.3    77  PHE77       0.0534
     59  CG       -21.4890   85.1480   95.2880 C.ar   77  PHE77      -0.0203
     60  CD1      -20.1910   85.4610   95.6800 C.ar   77  PHE77      -0.0042
     61  CD2      -22.4440   86.1580   95.2530 C.ar   77  PHE77      -0.0042
     62  CE1      -19.8480   86.7690   96.0300 C.ar   77  PHE77      -0.0003
     63  CE2      -22.1110   87.4660   95.6000 C.ar   77  PHE77      -0.0003
     64  CZ       -20.8090   87.7700   95.9890 C.ar   77  PHE77      -0.0000
     65  N        -31.4630   81.6980  101.2640 N.3   114  PHE114     -0.1227
     66  CA       -32.2240   82.5430  100.3620 C.3   114  PHE114      0.1736
     67  C        -33.0570   81.7420   99.3670 C.2   114  PHE114      0.2595
     68  O        -32.8080   80.5600   99.1370 O.2   114  PHE114     -0.2718
     69  CB       -31.2750   83.4840   99.6020 C.3   114  PHE114      0.0547
     70  CG       -30.3500   82.7830   98.6300 C.ar  114  PHE114     -0.0202
     71  CD1      -30.8250   82.3050   97.4130 C.ar  114  PHE114     -0.0042
     72  CD2      -29.0020   82.6030   98.9370 C.ar  114  PHE114     -0.0042
     73  CE1      -29.9700   81.6590   96.5100 C.ar  114  PHE114     -0.0003
     74  CE2      -28.1410   81.9590   98.0450 C.ar  114  PHE114     -0.0003
     75  CZ       -28.6250   81.4870   96.8300 C.ar  114  PHE114     -0.0000
     76  N        -34.0580   82.4050   98.8000 N.am  115  ARG115     -0.1980
     77  CA       -34.9280   81.8160   97.7920 C.3   115  ARG115      0.1597
     78  C        -34.4690   82.4820   96.5000 C.2   115  ARG115      0.2287
     79  O        -34.2710   83.6950   96.4560 O.2   115  ARG115     -0.2864
     80  CB       -36.3920   82.1760   98.0570 C.3   115  ARG115      0.0334
     81  CG       -37.0050   81.5750   99.3210 C.3   115  ARG115      0.0492
     82  CD       -37.4120   80.1380   99.1050 C.3   115  ARG115      0.2205
     83  NE       -38.0750   79.5470  100.2660 N.pl3 115  ARG115     -0.0865
     84  CZ       -38.5640   78.3110  100.2770 C.cat 115  ARG115      0.5346
     85  NH1      -38.4620   77.5510   99.1950 N.pl3 115  ARG115      0.1354
     86  NH2      -39.1470   77.8300  101.3630 N.pl3 115  ARG115      0.1354
     87  N        -33.9960   84.4130   93.0170 N.3   117  ASP117     -0.1239
     88  CA       -34.6540   85.5820   92.4440 C.3   117  ASP117      0.1674
     89  C        -35.0560   85.0810   91.0560 C.2   117  ASP117      0.2266
     90  O        -34.2260   85.0310   90.1450 O.2   117  ASP117     -0.2867
     91  CB       -33.6680   86.7460   92.3110 C.3   117  ASP117      0.1410
     92  CG       -34.2990   87.9930   91.6940 C.2   117  ASP117      0.3668
     93  OD1      -35.4420   87.9200   91.1980 O.co2 117  ASP117     -0.2456
     94  OD2      -33.6360   89.0510   91.6900 O.co2 117  ASP117     -0.2456
     95  N        -33.9800   86.9290   87.9080 N.3   120  SER120     -0.1202
     96  CA       -32.5550   87.1200   87.6730 C.3   120  SER120      0.2020
     97  C        -31.9680   86.1490   86.6510 C.2   120  SER120      0.2619
     98  O        -32.4190   85.0100   86.5310 O.2   120  SER120     -0.2717
     99  CB       -31.7840   86.9880   88.9850 C.3   120  SER120      0.2103
    100  OG       -30.3920   87.1360   88.7620 O.3   120  SER120     -0.2182
    101  N        -30.9530   86.6070   85.9250 N.am  121  SER121     -0.1937
    102  CA       -30.2930   85.7770   84.9240 C.3   121  SER121      0.2055
    103  C        -29.5070   84.6630   85.6060 C.2   121  SER121      0.2644
    104  O        -29.0740   83.7040   84.9650 O.2   121  SER121     -0.2714
    105  CB       -29.3410   86.6180   84.0750 C.3   121  SER121      0.2130
    106  OG       -28.3200   87.2030   84.8670 O.3   121  SER121     -0.2179
    107  N        -29.3080   84.7990   86.9110 N.am  122  SER122     -0.1935
    108  CA       -28.5750   83.7850   87.6490 C.3   122  SER122      0.2055
    109  C        -29.3350   82.4680   87.7820 C.2   122  SER122      0.2643
    110  O        -28.7180   81.4230   87.9840 O.2   122  SER122     -0.2714
    111  CB       -28.2100   84.2990   89.0450 C.3   122  SER122      0.2130
    112  OG       -27.2070   85.2970   88.9860 O.3   122  SER122     -0.2179
    113  N        -30.6610   82.5010   87.6630 N.am  123  PHE123     -0.1973
    114  CA       -31.4250   81.2710   87.8230 C.3   123  PHE123      0.1639
    115  C        -32.1800   80.7470   86.6020 C.2   123  PHE123      0.2290
    116  O        -33.0210   79.8490   86.7180 O.2   123  PHE123     -0.2864
    117  CB       -32.3700   81.4190   89.0200 C.3   123  PHE123      0.0560
    118  CG       -31.6590   81.7900   90.2940 C.ar  123  PHE123     -0.0200
    119  CD1      -31.4680   83.1250   90.6380 C.ar  123  PHE123     -0.0042
    120  CD2      -31.1120   80.8030   91.1110 C.ar  123  PHE123     -0.0042
    121  CE1      -30.7410   83.4750   91.7810 C.ar  123  PHE123     -0.0003
    122  CE2      -30.3840   81.1400   92.2520 C.ar  123  PHE123     -0.0003
    123  CZ       -30.1970   82.4800   92.5870 C.ar  123  PHE123     -0.0000
    124  N        -24.1570   83.8330   86.0520 N.3   132  ILE132     -0.1231
    125  CA       -23.5250   84.7430   86.9930 C.3   132  ILE132      0.1692
    126  C        -23.8700   84.2380   88.3940 C.2   132  ILE132      0.2592
    127  O        -24.9990   83.8340   88.6450 O.2   132  ILE132     -0.2718
    128  CB       -24.0700   86.1780   86.8100 C.3   132  ILE132      0.0266
    129  CG1      -23.6580   86.7050   85.4320 C.3   132  ILE132      0.0019
    130  CG2      -23.5720   87.0860   87.9360 C.3   132  ILE132      0.0020
    131  CD1      -24.2220   88.0690   85.1080 C.3   132  ILE132      0.0001
    132  N        -22.8980   84.2460   89.2970 N.am  133  ALA133     -0.1966
    133  CA       -23.1430   83.7730   90.6560 C.3   133  ALA133      0.1728
    134  C        -24.0250   84.7470   91.4340 C.2   133  ALA133      0.2617
    135  O        -24.0660   85.9390   91.1360 O.2   133  ALA133     -0.2715
    136  CB       -21.8160   83.5660   91.3850 C.3   133  ALA133      0.0334
    137  N        -24.7350   84.2310   92.4330 N.am  134  SER134     -0.1936
    138  CA       -25.6110   85.0600   93.2510 C.3   134  SER134      0.2058
    139  C        -25.6880   84.4830   94.6570 C.2   134  SER134      0.2682
    140  O        -25.7310   83.2630   94.8360 O.2   134  SER134     -0.2710
    141  CB       -27.0090   85.1300   92.6320 C.3   134  SER134      0.2130
    142  OG       -27.8500   85.9920   93.3750 O.3   134  SER134     -0.2179
    143  N        -25.7010   85.3570   95.6580 N.am  135  GLY135     -0.1729
    144  CA       -25.7480   84.8720   97.0200 C.2   135  GLY135      0.1340
    145  C        -25.5340   85.8830   98.1320 C.2   135  GLY135      0.2521
    146  O        -26.2980   86.8400   98.2700 O.2   135  GLY135     -0.2816
    147  N        -22.9070   88.5520   99.5780 N.3   137  PRO137     -0.2116
    148  CA       -21.6880   89.3670   99.5330 C.3   137  PRO137      0.1372
    149  C        -21.1060   89.6640  100.9230 C.2   137  PRO137      0.2244
    150  O        -19.8950   89.8510  101.0700 O.2   137  PRO137     -0.2868
    151  CB       -22.1570   90.6250   98.8000 C.3   137  PRO137      0.0268
    152  CG       -23.6060   90.7220   99.2260 C.3   137  PRO137      0.0207
    153  CD       -24.0330   89.2920   98.9840 C.3   137  PRO137      0.0892
@<TRIPOS>BOND
     1   105   106    1
     2   105   102    1
     3   102   103    1
     4   102   101    1
     5   104   103    2
     6   131   129    1
     7   129   128    1
     8   103   107   am
     9   101    97   am
    10   124   125    1
    11    98    97    2
    12   115   116    2
    13   115   114    1
    14    97    96    1
    15   128   125    1
    16   128   130    1
    17   107   108    1
    18   125   126    1
    19   108   109    1
    20   108   111    1
    21   113   109   am
    22   113   114    1
    23    96    95    1
    24    96    99    1
    25   109   110    2
    26   114   117    1
    27   126   127    2
    28   126   132   am
    29   100    99    1
    30   112   111    1
    31   117   118    1
    32    11     9    1
    33    10     9    1
    34   132   133    1
    35     9     8    2
    36    90    89    2
    37   118   119   ar
    38   118   120   ar
    39     8     7    1
    40   119   121   ar
    41   133   136    1
    42   133   134    1
    43    89    88    1
    44   120   122   ar
    45   135   134    2
    46    93    92   ar
    47     7     6    1
    48   134   137   am
    49    94    92   ar
    50    92    91    1
    51    23    22    1
    52   121   123   ar
    53   122   123   ar
    54    91    88    1
    55   137   138    1
    56     6     5    1
    57    88    87    1
    58   141   138    1
    59   141   142    1
    60     5     2    1
    61    22    21   ar
    62    22    20   ar
    63   138   139    1
    64    30    29   ar
    65    53    51    1
    66    21    19   ar
    67    20    18   ar
    68    52    51    1
    69     2     1    1
    70     2     3    1
    71    51    50    2
    72    31    29   ar
    73    29    28    1
    74   139   140    2
    75   139   143    1
    76    19    17   ar
    77    58    59    1
    78    58    55    1
    79    50    49    1
    80    61    59   ar
    81    61    63   ar
    82    18    17   ar
    83    59    60   ar
    84     3     4    2
    85    57    56    2
    86    56    55    1
    87    63    64   ar
    88   143   144    2
    89    17    16    1
    90    28    25    1
    91    60    62   ar
    92    32    33    1
    93    32    26   am
    94    33    34    1
    95    64    62   ar
    96    49    48    1
    97    55    54    1
    98    25    26    1
    99    25    24    1
   100    79    78    2
   101    78    77    1
   102    73    75   ar
   103    73    71   ar
   104    26    27    2
   105    75    74   ar
   106   144   145    1
   107    16    13    1
   108    34    35    2
   109    34    36   am
   110    48    47    1
   111    71    70   ar
   112    13    12    1
   113    13    14    1
   114    36    37    1
   115    77    80    1
   116    77    76    1
   117    47    44    1
   118    74    72   ar
   119    80    81    1
   120   145   146    2
   121    42    40    1
   122    70    72   ar
   123    70    69    1
   124   151   152    1
   125   151   148    1
   126    76    67   am
   127    14    15    2
   128   153   152    1
   129   153   147    1
   130    37    40    1
   131    37    38    1
   132    82    81    1
   133    82    83    1
   134    68    67    2
   135    44    43    1
   136    44    45    1
   137    85    84    1
   138    67    66    1
   139    40    41    1
   140   148   147    1
   141   148   149    1
   142    69    66    1
   143    38    39    2
   144    83    84    2
   145    84    86    1
   146    45    46    2
   147    66    65    1
   148   149   150    2
