@<TRIPOS>MOLECULE
tmp/1d0cA01.pdb
 84 84 0 0 0
SMALL
GASTEIGER

@<TRIPOS>ATOM
      1  N          8.8620    5.3550   36.8470 N.3   120  CYS120     -0.1235
      2  CA         7.8190    5.6890   35.8670 C.3   120  CYS120      0.1677
      3  C          6.4840    5.0450   36.1180 C.2   120  CYS120      0.2270
      4  O          6.3100    3.8070   36.1000 O.2   120  CYS120     -0.2867
      5  CB         8.3080    5.2920   34.4490 C.3   120  CYS120      0.0956
      6  SG         7.0900    5.6880   33.1680 S.3   120  CYS120     -0.0801
      7  N          5.9530   16.0190   26.8230 N.3   270  PRO270     -0.2116
      8  CA         7.0580   15.7850   27.7580 C.3   270  PRO270      0.1372
      9  C          8.0910   14.8910   27.0930 C.2   270  PRO270      0.2244
     10  O          7.8440   13.7440   26.7130 O.2   270  PRO270     -0.2868
     11  CB         6.3460   15.0800   28.9140 C.3   270  PRO270      0.0268
     12  CG         5.1920   14.3510   28.2940 C.3   270  PRO270      0.0207
     13  CD         4.8320   15.1020   27.0270 C.3   270  PRO270      0.0892
     14  N         11.9870   13.8860   27.6530 N.3   272  VAL272     -0.1245
     15  CA        13.2650   13.9370   28.3430 C.3   272  VAL272      0.1561
     16  C         14.4480   13.7370   27.4210 C.2   272  VAL272      0.2260
     17  O         14.4910   12.7200   26.7080 O.2   272  VAL272     -0.2867
     18  CB        13.2530   12.8170   29.4160 C.3   272  VAL272      0.0252
     19  CG1       14.6350   12.7360   30.0190 C.3   272  VAL272      0.0019
     20  CG2       12.1520   13.1090   30.4310 C.3   272  VAL272      0.0019
     21  N         13.4590   10.7160   24.6370 N.3   289  PHE289     -0.1227
     22  CA        12.2380    9.9340   24.6520 C.3   289  PHE289      0.1736
     23  C         11.0850   10.7780   25.1590 C.2   289  PHE289      0.2596
     24  O         11.2650   11.7270   25.9500 O.2   289  PHE289     -0.2718
     25  CB        12.4440    8.6840   25.5090 C.3   289  PHE289      0.0547
     26  CG        12.8550    8.9340   26.9690 C.ar  289  PHE289     -0.0202
     27  CD1       11.9070    9.2050   27.9360 C.ar  289  PHE289     -0.0042
     28  CD2       14.1780    8.8660   27.3310 C.ar  289  PHE289     -0.0042
     29  CE1       12.2930    9.3820   29.2580 C.ar  289  PHE289     -0.0003
     30  CE2       14.6010    9.0660   28.6390 C.ar  289  PHE289     -0.0003
     31  CZ        13.6220    9.3360   29.5820 C.ar  289  PHE289     -0.0000
     32  N          9.8920   10.4300   24.7130 N.am  290  SER290     -0.1938
     33  CA         8.6980   11.2010   25.0300 C.3   290  SER290      0.2055
     34  C          7.4660   10.3210   25.1620 C.2   290  SER290      0.2644
     35  O          7.3540    9.2560   24.5510 O.2   290  SER290     -0.2714
     36  CB         8.4780   12.3070   23.9670 C.3   290  SER290      0.2130
     37  OG         8.0990   11.6640   22.7400 O.3   290  SER290     -0.2179
     38  N          6.5430   10.7620   26.0280 N.am  291  GLY291     -0.1939
     39  CA         5.2770   10.0740   26.2390 C.3   291  GLY291      0.2014
     40  C          4.1380   11.0690   26.1330 C.2   291  GLY291      0.2639
     41  O          3.9890   11.7710   25.1220 O.2   291  GLY291     -0.2714
     42  N          3.3480   11.1690   27.1920 N.am  292  TRP292     -0.1959
     43  CA         2.3490   12.1970   27.4050 C.3   292  TRP292      0.1771
     44  C          2.2780   12.5110   28.9120 C.2   292  TRP292      0.2620
     45  O          2.7740   11.7060   29.7000 O.2   292  TRP292     -0.2715
     46  CB         0.9750   11.8140   26.8940 C.3   292  TRP292      0.0590
     47  CG         0.4100   10.5190   27.3520 C.ar  292  TRP292      0.0006
     48  CD1       -0.2310   10.2590   28.5270 C.ar  292  TRP292      0.0946
     49  CD2        0.4390    9.2900   26.6200 C.ar  292  TRP292      0.0152
     50  NE1       -0.6070    8.9270   28.5800 N.ar  292  TRP292     -0.2442
     51  CE2       -0.2000    8.3170   27.4110 C.ar  292  TRP292      0.0810
     52  CE3        0.9630    8.9380   25.3600 C.ar  292  TRP292      0.0012
     53  CZ2       -0.3510    6.9930   27.0010 C.ar  292  TRP292      0.0191
     54  CZ3        0.8050    7.6170   24.9700 C.ar  292  TRP292      0.0001
     55  CH2        0.1670    6.6730   25.7730 C.ar  292  TRP292      0.0015
     56  N          1.7030   13.6530   29.2540 N.am  293  TYR293     -0.1960
     57  CA         1.6870   14.0260   30.6690 C.3   293  TYR293      0.1771
     58  C          0.6320   13.3450   31.5060 C.2   293  TYR293      0.2619
     59  O         -0.5240   13.1180   31.1620 O.2   293  TYR293     -0.2715
     60  CB         1.4420   15.5480   30.7420 C.3   293  TYR293      0.0574
     61  CG         2.7020   16.3640   30.7790 C.ar  293  TYR293     -0.0198
     62  CD1        3.6020   16.3210   31.8300 C.ar  293  TYR293     -0.0009
     63  CD2        3.0220   17.2370   29.7390 C.ar  293  TYR293     -0.0009
     64  CE1        4.7620   17.0510   31.8980 C.ar  293  TYR293      0.0417
     65  CE2        4.1880   17.9810   29.7950 C.ar  293  TYR293      0.0417
     66  CZ         5.0600   17.9190   30.8460 C.ar  293  TYR293      0.1957
     67  OH         6.2020   18.6660   30.8670 O.3   293  TYR293     -0.2866
     68  N          1.0490   13.0670   32.7500 N.am  294  MET294     -0.1977
     69  CA         0.1430   12.9350   33.8820 C.3   294  MET294      0.1605
     70  C         -0.0790   14.3310   34.4920 C.2   294  MET294      0.2287
     71  O          0.8470   15.1010   34.7150 O.2   294  MET294     -0.2864
     72  CB         0.7060   11.9820   34.9310 C.3   294  MET294      0.0413
     73  CG        -0.2890   11.8130   36.0930 C.3   294  MET294      0.0598
     74  SD         0.1550   10.3780   37.0760 S.3   294  MET294     -0.1393
     75  CE         1.5340   11.0040   38.0250 C.3   294  MET294      0.0692
     76  N          1.8580   16.3120   37.1710 N.3   297  GLU297     -0.1245
     77  CA         3.2110   16.7820   36.9140 C.3   297  GLU297      0.1567
     78  C          3.1710   18.2650   36.5290 C.2   297  GLU297      0.2260
     79  O          4.0120   19.0620   36.9380 O.2   297  GLU297     -0.2867
     80  CB         3.8700   15.9420   35.8030 C.3   297  GLU297      0.0388
     81  CG         5.3680   16.1960   35.6770 C.3   297  GLU297      0.1160
     82  CD         6.1460   15.4310   36.7310 C.2   297  GLU297      0.3649
     83  OE1        7.3840   15.4100   36.5930 O.co2 297  GLU297     -0.2457
     84  OE2        5.5150   14.8820   37.6640 O.co2 297  GLU297     -0.2457
@<TRIPOS>BOND
     1    37    36    1
     2    36    33    1
     3    35    34    2
     4    21    22    1
     5    22    23    1
     6    22    25    1
     7    32    33    1
     8    32    23   am
     9    54    52   ar
    10    54    55   ar
    11    33    34    1
    12    41    40    2
    13    23    24    2
    14    34    38   am
    15    52    49   ar
    16    25    26    1
    17    55    53   ar
    18    38    39    1
    19    40    39    1
    20    40    42   am
    21    49    47   ar
    22    49    51   ar
    23    17    16    2
    24    10     9    2
    25     7    13    1
    26     7     8    1
    27    46    47    1
    28    46    43    1
    29    26    28   ar
    30    26    27   ar
    31    53    51   ar
    32    13    12    1
    33     9     8    1
    34    42    43    1
    35    28    30   ar
    36    47    48   ar
    37    43    44    1
    38    51    50   ar
    39    16    15    1
    40    14    15    1
    41     8    11    1
    42    27    29   ar
    43    12    11    1
    44    15    18    1
    45    48    50   ar
    46    30    31   ar
    47    44    56   am
    48    44    45    2
    49    56    57    1
    50    29    31   ar
    51    18    19    1
    52    18    20    1
    53    63    65   ar
    54    63    61   ar
    55    65    66   ar
    56    57    60    1
    57    57    58    1
    58    60    61    1
    59    61    62   ar
    60    66    67    1
    61    66    64   ar
    62    59    58    2
    63    58    68   am
    64    62    64   ar
    65    68    69    1
    66     6     5    1
    67    69    70    1
    68    69    72    1
    69     5     2    1
    70    70    71    2
    71    72    73    1
    72    81    80    1
    73    81    82    1
    74    80    77    1
    75     2     3    1
    76     2     1    1
    77    73    74    1
    78     4     3    2
    79    78    77    1
    80    78    79    2
    81    83    82   ar
    82    82    84   ar
    83    77    76    1
    84    74    75    1
