@<TRIPOS>MOLECULE
tmp/1d0cB01.pdb
 194 186 0 0 0
SMALL
GASTEIGER

@<TRIPOS>ATOM
      1  N         10.9370    8.0170   71.4330 N.3   112  TRP112     -0.1241
      2  CA        10.0850    8.8740   70.5920 C.3   112  TRP112      0.1605
      3  C         10.9900    9.6840   69.6590 C.2   112  TRP112      0.2264
      4  O         10.7410    9.7150   68.4270 O.2   112  TRP112     -0.2867
      5  CB         9.1730    9.7220   71.4500 C.3   112  TRP112      0.0550
      6  CG         8.2200   10.6340   70.7280 C.ar  112  TRP112      0.0003
      7  CD1        7.8600   10.6130   69.3970 C.ar  112  TRP112      0.0946
      8  CD2        7.4910   11.7140   71.3170 C.ar  112  TRP112      0.0152
      9  NE1        6.9630   11.6210   69.1490 N.ar  112  TRP112     -0.2442
     10  CE2        6.7090   12.3210   70.3080 C.ar  112  TRP112      0.0810
     11  CE3        7.4000   12.2630   72.6210 C.ar  112  TRP112      0.0012
     12  CZ2        5.8690   13.4100   70.5270 C.ar  112  TRP112      0.0191
     13  CZ3        6.5710   13.3350   72.8210 C.ar  112  TRP112      0.0001
     14  CH2        5.7990   13.9240   71.8010 C.ar  112  TRP112      0.0015
     15  N         12.0120    7.8240   66.6070 N.3   115  ALA115     -0.1301
     16  CA        11.0110    7.1200   65.8020 C.3   115  ALA115      0.1247
     17  C         10.9510    7.6860   64.3750 C.3   115  ALA115      0.2009
     18  O         10.4030    8.7780   64.2810 O.3   115  ALA115     -0.2188
     19  CB         9.6420    7.2740   66.4530 C.3   115  ALA115      0.0233
     20  N          9.2490    7.3080   61.6780 N.3   117  ARG117     -0.1231
     21  CA         7.9500    7.5730   61.0640 C.3   117  ARG117      0.1694
     22  C          7.1490    8.6920   61.7190 C.2   117  ARG117      0.2592
     23  O          6.0770    9.0280   61.2080 O.2   117  ARG117     -0.2718
     24  CB         7.1180    6.2760   61.0550 C.3   117  ARG117      0.0321
     25  CG         7.6680    5.2730   60.0520 C.3   117  ARG117      0.0489
     26  CD         6.9570    3.9390   60.0760 C.3   117  ARG117      0.2205
     27  NE         7.5570    3.0290   59.1010 N.pl3 117  ARG117     -0.0865
     28  CZ         7.1900    1.7670   58.9000 C.cat 117  ARG117      0.5346
     29  NH1        6.2220    1.2310   59.6120 N.pl3 117  ARG117      0.1354
     30  NH2        7.7940    1.0160   57.9840 N.pl3 117  ARG117      0.1354
     31  N          7.6160    9.2810   62.8210 N.am  118  CYS118     -0.1956
     32  CA         6.7950   10.2660   63.5190 C.3   118  CYS118      0.1843
     33  C          7.0480   11.7020   63.1040 C.2   118  CYS118      0.2625
     34  O          8.1640   12.1860   63.2590 O.2   118  CYS118     -0.2714
     35  CB         7.0530   10.1470   65.0320 C.3   118  CYS118      0.0997
     36  SG         5.9950   11.2990   65.9650 S.3   118  CYS118     -0.0797
     37  N          6.0300   12.3830   62.5750 N.am  119  VAL119     -0.1963
     38  CA         6.2160   13.7640   62.1530 C.3   119  VAL119      0.1727
     39  C          6.0920   14.7290   63.3260 C.2   119  VAL119      0.2616
     40  O          6.3730   15.9210   63.2360 O.2   119  VAL119     -0.2715
     41  CB         5.1850   14.1310   61.0490 C.3   119  VAL119      0.0290
     42  CG1        3.7800   14.2310   61.6130 C.3   119  VAL119      0.0023
     43  CG2        5.5820   15.4450   60.3690 C.3   119  VAL119      0.0023
     44  N          5.6390   14.2080   64.4760 N.am  120  GLY120     -0.1955
     45  CA         5.3730   15.1350   65.5860 C.3   120  GLY120      0.1869
     46  C          6.5440   15.2850   66.5360 C.2   120  GLY120      0.2309
     47  O          6.3690   15.8230   67.6370 O.2   120  GLY120     -0.2863
     48  N          7.9580   17.7920   69.5820 N.3   123  GLN123     -0.1245
     49  CA         7.4090   17.6650   70.9140 C.3   123  GLN123      0.1566
     50  C          8.1390   16.6820   71.8250 C.2   123  GLN123      0.2260
     51  O          7.7120   16.5920   72.9940 O.2   123  GLN123     -0.2867
     52  CB         5.9290   17.2130   70.8180 C.3   123  GLN123      0.0367
     53  CG         5.0070   18.3080   70.2900 C.3   123  GLN123      0.0905
     54  CD         4.8660   19.4860   71.2450 C.2   123  GLN123      0.2608
     55  OE1        4.7030   20.6490   70.8740 O.2   123  GLN123     -0.2717
     56  NE2        4.9200   19.2010   72.5390 N.am  123  GLN123     -0.0878
     57  N          7.0220   14.8910   77.2170 N.3   127  LEU127     -0.1301
     58  CA         6.3770   13.5950   77.3080 C.3   127  LEU127      0.1247
     59  C          6.2240   13.2800   78.8130 C.3   127  LEU127      0.2009
     60  O          7.2690   13.3350   79.4580 O.3   127  LEU127     -0.2188
     61  CB         7.2080   12.5310   76.6180 C.3   127  LEU127      0.0217
     62  CG         6.6780   11.0960   76.6550 C.3   127  LEU127      0.0015
     63  CD1        5.4400   10.9540   75.7700 C.3   127  LEU127      0.0000
     64  CD2        7.7590   10.1200   76.2440 C.3   127  LEU127      0.0000
     65  N          0.9700   14.7860   75.7830 N.3   160  SER160     -0.1217
     66  CA         1.6220   13.5510   75.4040 C.3   160  SER160      0.1889
     67  C          2.0090   12.7400   76.6420 C.2   160  SER160      0.2288
     68  O          2.4710   13.3460   77.6080 O.2   160  SER160     -0.2866
     69  CB         2.8840   13.8340   74.5680 C.3   160  SER160      0.2089
     70  OG         2.4300   14.6200   73.4620 O.3   160  SER160     -0.2183
     71  N          3.1190    8.4790   78.2160 N.3   162  ILE162     -0.1245
     72  CA         3.3170    7.0550   78.0060 C.3   162  ILE162      0.1561
     73  C          3.2300    6.3850   79.3890 C.2   162  ILE162      0.2260
     74  O          3.7050    6.9870   80.3480 O.2   162  ILE162     -0.2867
     75  CB         4.6550    6.7280   77.3430 C.3   162  ILE162      0.0252
     76  CG1        4.9120    5.2370   77.0730 C.3   162  ILE162      0.0019
     77  CG2        5.8110    7.3510   78.1270 C.3   162  ILE162      0.0019
     78  CD1        6.1440    4.9680   76.2270 C.3   162  ILE162      0.0001
     79  N         -1.3750    4.7050   70.8430 N.3   270  VAL270     -0.1245
     80  CA        -0.9440    3.4240   70.2790 C.3   270  VAL270      0.1561
     81  C         -0.5970    2.4190   71.3740 C.2   270  VAL270      0.2260
     82  O          0.1730    2.8200   72.2580 O.2   270  VAL270     -0.2867
     83  CB         0.3060    3.6690   69.4100 C.3   270  VAL270      0.0252
     84  CG1        0.8870    2.3700   68.8960 C.3   270  VAL270      0.0019
     85  CG2       -0.0880    4.6040   68.2640 C.3   270  VAL270      0.0019
     86  N          2.6900   -1.5740   70.4900 N.3   273  MET273     -0.1245
     87  CA         4.1140   -1.6120   70.1600 C.3   273  MET273      0.1570
     88  C          4.9710   -1.9360   71.3750 C.2   273  MET273      0.2261
     89  O          4.5520   -1.7690   72.5210 O.2   273  MET273     -0.2867
     90  CB         4.5750   -0.2880   69.5280 C.3   273  MET273      0.0387
     91  CG         3.8720   -0.0630   68.1900 C.3   273  MET273      0.0595
     92  SD         4.4200    1.4180   67.3530 S.3   273  MET273     -0.1393
     93  CE         6.0270    0.9450   66.7240 C.3   273  MET273      0.0692
     94  N          1.3130    4.6950   74.3860 N.3   287  PHE287     -0.1227
     95  CA         1.7040    6.0930   74.3750 C.3   287  PHE287      0.1736
     96  C          0.6800    6.8810   73.5680 C.2   287  PHE287      0.2596
     97  O          0.0180    6.2750   72.7080 O.2   287  PHE287     -0.2718
     98  CB         3.1110    6.2780   73.8080 C.3   287  PHE287      0.0547
     99  CG         3.3170    5.6120   72.4430 C.ar  287  PHE287     -0.0202
    100  CD1        3.0460    6.3410   71.2970 C.ar  287  PHE287     -0.0042
    101  CD2        3.7700    4.3120   72.3540 C.ar  287  PHE287     -0.0042
    102  CE1        3.2390    5.7130   70.0710 C.ar  287  PHE287     -0.0003
    103  CE2        3.9690    3.6800   71.1370 C.ar  287  PHE287     -0.0003
    104  CZ         3.7010    4.4210   69.9830 C.ar  287  PHE287     -0.0000
    105  N          0.5540    8.1710   73.8680 N.am  288  SER288     -0.1938
    106  CA        -0.4750    8.9550   73.1710 C.3   288  SER288      0.2055
    107  C         -0.0150   10.3910   72.9800 C.2   288  SER288      0.2644
    108  O          0.7900   10.9080   73.7620 O.2   288  SER288     -0.2714
    109  CB        -1.7930    8.9280   73.9530 C.3   288  SER288      0.2130
    110  OG        -1.5360    9.5240   75.2370 O.3   288  SER288     -0.2179
    111  N         -0.5040   11.0290   71.9180 N.am  289  GLY289     -0.1939
    112  CA        -0.1500   12.4280   71.6330 C.3   289  GLY289      0.2014
    113  C         -1.4210   13.1720   71.2750 C.2   289  GLY289      0.2638
    114  O         -2.3680   13.1870   72.0680 O.2   289  GLY289     -0.2714
    115  N         -1.4670   13.7880   70.0880 N.am  290  TRP290     -0.1973
    116  CA        -2.7280   14.3550   69.6170 C.3   290  TRP290      0.1640
    117  C         -2.7370   14.0970   68.0880 C.2   290  TRP290      0.2290
    118  O         -1.6850   13.7090   67.5690 O.2   290  TRP290     -0.2864
    119  CB        -2.9210   15.8230   69.9190 C.3   290  TRP290      0.0576
    120  CG        -1.7790   16.7240   69.5860 C.ar  290  TRP290      0.0006
    121  CD1       -1.4990   17.2860   68.3550 C.ar  290  TRP290      0.0946
    122  CD2       -0.7540   17.1810   70.4700 C.ar  290  TRP290      0.0152
    123  NE1       -0.3640   18.0570   68.4480 N.ar  290  TRP290     -0.2442
    124  CE2        0.1080   18.0060   69.7400 C.ar  290  TRP290      0.0810
    125  CE3       -0.5000   16.9570   71.8330 C.ar  290  TRP290      0.0012
    126  CZ2        1.2260   18.6280   70.2900 C.ar  290  TRP290      0.0191
    127  CZ3        0.6130   17.5780   72.3770 C.ar  290  TRP290      0.0001
    128  CH2        1.4550   18.3930   71.6260 C.ar  290  TRP290      0.0015
    129  N         -2.8460   14.5490   64.0470 N.3   292  MET292     -0.1245
    130  CA        -2.6700   15.3090   62.8190 C.3   292  MET292      0.1570
    131  C         -3.9240   15.0810   61.9930 C.2   292  MET292      0.2261
    132  O         -4.3660   13.9390   61.8860 O.2   292  MET292     -0.2867
    133  CB        -1.4350   14.8930   62.0350 C.3   292  MET292      0.0387
    134  CG        -1.3040   15.8570   60.8230 C.3   292  MET292      0.0595
    135  SD         0.3830   15.8060   60.2370 S.3   292  MET292     -0.1393
    136  CE         0.3300   14.2130   59.3830 C.3   292  MET292      0.0692
    137  N         -4.7370   12.3520   59.5630 N.3   295  GLU295     -0.1245
    138  CA        -4.8130   10.9260   59.9370 C.3   295  GLU295      0.1567
    139  C         -6.2650   10.4790   60.0290 C.2   295  GLU295      0.2260
    140  O         -6.7090    9.3790   59.6750 O.2   295  GLU295     -0.2867
    141  CB        -4.0030   10.7740   61.2370 C.3   295  GLU295      0.0388
    142  CG        -3.7000    9.3470   61.6330 C.3   295  GLU295      0.1160
    143  CD        -2.6740    8.6500   60.7650 C.2   295  GLU295      0.3649
    144  OE1       -2.1760    9.2520   59.7890 O.co2 295  GLU295     -0.2457
    145  OE2       -2.3740    7.4760   61.0830 O.co2 295  GLU295     -0.2457
    146  N         -3.6760   19.2510   64.9400 N.3   352  VAL352     -0.1245
    147  CA        -2.6800   20.0260   64.2040 C.3   352  VAL352      0.1561
    148  C         -2.8860   19.7010   62.7200 C.2   352  VAL352      0.2260
    149  O         -3.0860   18.5420   62.3820 O.2   352  VAL352     -0.2867
    150  CB        -1.2370   19.7450   64.6380 C.3   352  VAL352      0.0252
    151  CG1       -0.8310   18.2780   64.4560 C.3   352  VAL352      0.0019
    152  CG2       -0.2510   20.6450   63.8930 C.3   352  VAL352      0.0019
    153  N          2.1540   20.9650   61.0030 N.3   357  ALA357     -0.1245
    154  CA         2.9620   19.8730   61.5250 C.3   357  ALA357      0.1562
    155  C          4.2400   19.6540   60.7340 C.2   357  ALA357      0.2260
    156  O          5.3070   19.3960   61.2860 O.2   357  ALA357     -0.2867
    157  CB         2.1630   18.5700   61.5270 C.3   357  ALA357      0.0290
    158  N          6.4180    8.0660   55.3710 N.3   381  TRP381     -0.1241
    159  CA         5.5180    8.2620   56.4880 C.3   381  TRP381      0.1605
    160  C          5.4970    9.7270   56.9230 C.2   381  TRP381      0.2264
    161  O          4.4750   10.1690   57.4290 O.2   381  TRP381     -0.2867
    162  CB         5.9340    7.3780   57.6850 C.3   381  TRP381      0.0550
    163  CG         5.5740    5.9480   57.4110 C.ar  381  TRP381      0.0003
    164  CD1        6.1600    5.1410   56.4720 C.ar  381  TRP381      0.0946
    165  CD2        4.5670    5.1630   58.0390 C.ar  381  TRP381      0.0152
    166  NE1        5.5720    3.8980   56.4970 N.ar  381  TRP381     -0.2442
    167  CE2        4.5940    3.8870   57.4520 C.ar  381  TRP381      0.0810
    168  CE3        3.6380    5.3840   59.0520 C.ar  381  TRP381      0.0012
    169  CZ2        3.7410    2.8490   57.8270 C.ar  381  TRP381      0.0191
    170  CZ3        2.7960    4.3500   59.4180 C.ar  381  TRP381      0.0001
    171  CH2        2.8340    3.0880   58.8260 C.ar  381  TRP381      0.0015
    172  N         10.8590    2.3050   69.5500 N.3   407  PHE407     -0.1241
    173  CA         9.5600    1.6620   69.4910 C.3   407  PHE407      0.1605
    174  C          9.5860    0.6660   68.3240 C.2   407  PHE407      0.2264
    175  O         10.0620    1.0260   67.2400 O.2   407  PHE407     -0.2867
    176  CB         8.4060    2.6390   69.3310 C.3   407  PHE407      0.0534
    177  CG         8.1430    3.5010   70.5540 C.ar  407  PHE407     -0.0203
    178  CD1        8.4810    4.8420   70.5640 C.ar  407  PHE407     -0.0042
    179  CD2        7.5550    2.8940   71.6650 C.ar  407  PHE407     -0.0042
    180  CE1        8.2580    5.6560   71.6790 C.ar  407  PHE407     -0.0003
    181  CE2        7.3170    3.7080   72.7690 C.ar  407  PHE407     -0.0003
    182  CZ         7.6480    5.0540   72.7730 C.ar  407  PHE407     -0.0000
    183  N          7.5920   -2.9490   66.2980 N.3   409  TYR409     -0.1241
    184  CA         6.4570   -3.8370   66.2090 C.3   409  TYR409      0.1605
    185  C          6.7440   -5.1620   66.9260 C.2   409  TYR409      0.2264
    186  O          7.8860   -5.5660   67.1330 O.2   409  TYR409     -0.2867
    187  CB         6.0810   -4.1920   64.7550 C.3   409  TYR409      0.0534
    188  CG         5.7520   -2.9490   63.9360 C.ar  409  TYR409     -0.0201
    189  CD1        4.6350   -2.1870   64.2170 C.ar  409  TYR409     -0.0009
    190  CD2        6.5690   -2.5620   62.8820 C.ar  409  TYR409     -0.0009
    191  CE1        4.3300   -1.0530   63.4690 C.ar  409  TYR409      0.0417
    192  CE2        6.2860   -1.4350   62.1240 C.ar  409  TYR409      0.0417
    193  CZ         5.1600   -0.6940   62.4320 C.ar  409  TYR409      0.1957
    194  OH         4.8550    0.4310   61.6960 O.3   409  TYR409     -0.2866
@<TRIPOS>BOND
     1   158   159    1
     2   164   166   ar
     3   164   163   ar
     4   159   160    1
     5   159   162    1
     6   166   167   ar
     7   160   161    2
     8   163   162    1
     9   163   165   ar
    10   167   169   ar
    11   167   165   ar
    12   169   171   ar
    13    30    28    1
    14   165   168   ar
    15   171   170   ar
    16    28    27    2
    17    28    29    1
    18   168   170   ar
    19    27    26    1
    20   136   135    1
    21   137   138    1
    22   140   139    2
    23   144   143   ar
    24   138   139    1
    25   138   141    1
    26    25    26    1
    27    25    24    1
    28   135   134    1
    29    43    41    1
    30   155   156    2
    31   155   154    1
    32   143   145   ar
    33   143   142    1
    34   134   133    1
    35   153   154    1
    36    41    42    1
    37    41    38    1
    38    24    21    1
    39    21    20    1
    40    21    22    1
    41    23    22    2
    42   141   142    1
    43   154   157    1
    44   194   193    1
    45    22    31   am
    46   132   131    2
    47   131   130    1
    48   133   130    1
    49   192   193   ar
    50   192   190   ar
    51    38    37    1
    52    38    39    1
    53   149   148    2
    54   193   191   ar
    55    37    33   am
    56   148   147    1
    57   130   129    1
    58    31    32    1
    59   190   188   ar
    60    33    34    2
    61    33    32    1
    62    40    39    2
    63    39    44   am
    64   191   189   ar
    65    32    35    1
    66   152   150    1
    67   188   189   ar
    68   188   187    1
    69   147   150    1
    70   147   146    1
    71    18    17    1
    72    17    16    1
    73   151   150    1
    74    44    45    1
    75   187   184    1
    76    35    36    1
    77    45    46    1
    78    16    19    1
    79    16    15    1
    80   184   183    1
    81   184   185    1
    82    46    47    2
    83    93    92    1
    84   185   186    2
    85   175   174    2
    86    92    91    1
    87   118   117    2
    88   117   116    1
    89    91    90    1
    90    85    83    1
    91   174   173    1
    92   121   123   ar
    93   121   120   ar
    94     4     3    2
    95   123   124   ar
    96    84    83    1
    97     9     7   ar
    98     9    10   ar
    99   176   173    1
   100   176   177    1
   101     7     6   ar
   102    83    80    1
   103   173   172    1
   104    90    87    1
   105    48    49    1
   106   120   119    1
   107   120   122   ar
   108   116   119    1
   109   116   115    1
   110     3     2    1
   111   124   126   ar
   112   124   122   ar
   113   104   102   ar
   114   104   103   ar
   115   102   100   ar
   116   115   113   am
   117    87    86    1
   118    87    88    1
   119    80    79    1
   120    80    81    1
   121    53    52    1
   122    53    54    1
   123   126   128   ar
   124    10    12   ar
   125    10     8   ar
   126   122   125   ar
   127    12    14   ar
   128   177   178   ar
   129   177   179   ar
   130   178   180   ar
   131     2     1    1
   132     2     5    1
   133     6     8   ar
   134     6     5    1
   135    52    49    1
   136    55    54    2
   137    49    50    1
   138   103   101   ar
   139    54    56   am
   140   113   112    1
   141   113   114    2
   142   100    99   ar
   143     8    11   ar
   144    81    82    2
   145    88    89    2
   146   128   127   ar
   147   112   111    1
   148   179   181   ar
   149   180   182   ar
   150    14    13   ar
   151    50    51    2
   152   125   127   ar
   153   111   107   am
   154   101    99   ar
   155    99    98    1
   156    11    13   ar
   157    97    96    2
   158   181   182   ar
   159   107   106    1
   160   107   108    2
   161   106   105    1
   162   106   109    1
   163    70    69    1
   164    96   105   am
   165    96    95    1
   166    98    95    1
   167   109   110    1
   168    95    94    1
   169    69    66    1
   170    66    65    1
   171    66    67    1
   172    63    62    1
   173    78    76    1
   174    64    62    1
   175    61    62    1
   176    61    58    1
   177    67    68    2
   178    76    75    1
   179    57    58    1
   180    58    59    1
   181    75    72    1
   182    75    77    1
   183    72    71    1
   184    72    73    1
   185    59    60    1
   186    73    74    2
