@<TRIPOS>MOLECULE
tmp/1d0hA01.pdb
 89 86 0 0 0
SMALL
GASTEIGER

@<TRIPOS>ATOM
      1  N         -0.6580   18.3070   75.5800 N.3   323  LYS323     -0.1245
      2  CA        -0.4660   16.8940   75.8460 C.3   323  LYS323      0.1561
      3  C         -0.1010   16.2710   74.4910 C.2   323  LYS323      0.2260
      4  O         -0.7190   16.6520   73.4940 O.2   323  LYS323     -0.2867
      5  CB        -1.6650   16.1600   76.3960 C.3   323  LYS323      0.0271
      6  CG        -2.0280   16.6090   77.8070 C.3   323  LYS323      0.0035
      7  CD        -3.1560   15.7290   78.3320 C.3   323  LYS323      0.0206
      8  CE        -4.0390   16.5700   79.2550 C.3   323  LYS323      0.1093
      9  NZ        -4.3130   17.8790   78.5770 N.3   323  LYS323     -0.1314
     10  N          0.4470   12.8390   72.1220 N.3   325  TYR325     -0.1241
     11  CA        -0.0270   11.4780   72.0210 C.3   325  TYR325      0.1605
     12  C          0.6690   10.7960   70.8430 C.2   325  TYR325      0.2264
     13  O          1.0090   11.4820   69.8860 O.2   325  TYR325     -0.2867
     14  CB        -1.5440   11.4650   71.7570 C.3   325  TYR325      0.0534
     15  CG        -2.4200   11.9470   72.9090 C.ar  325  TYR325     -0.0201
     16  CD1       -2.5430   13.2910   73.2030 C.ar  325  TYR325     -0.0009
     17  CD2       -3.1130   11.0310   73.6790 C.ar  325  TYR325     -0.0009
     18  CE1       -3.3200   13.7370   74.2560 C.ar  325  TYR325      0.0417
     19  CE2       -3.9050   11.4710   74.7370 C.ar  325  TYR325      0.0417
     20  CZ        -4.0050   12.7950   75.0150 C.ar  325  TYR325      0.1957
     21  OH        -4.7730   13.2530   76.0320 O.3   325  TYR325     -0.2866
     22  N         -5.9760    4.9140   67.2970 N.3   331  ASN331     -0.1225
     23  CA        -5.8990    5.1180   68.7260 C.3   331  ASN331      0.1785
     24  C         -4.8220    6.1540   69.0550 C.2   331  ASN331      0.2597
     25  O         -3.9240    6.4160   68.2650 O.2   331  ASN331     -0.2718
     26  CB        -5.6420    3.8030   69.4570 C.3   331  ASN331      0.1169
     27  CG        -6.3580    3.7310   70.7950 C.2   331  ASN331      0.2627
     28  OD1       -6.3520    2.6870   71.4830 O.2   331  ASN331     -0.2716
     29  ND2       -6.9530    4.8390   71.2350 N.am  331  ASN331     -0.0877
     30  N         -5.0180    6.8210   70.1700 N.am  332  GLU332     -0.1965
     31  CA        -4.1470    7.8400   70.7020 C.3   332  GLU332      0.1733
     32  C         -3.6140    7.3220   72.0460 C.2   332  GLU332      0.2616
     33  O         -4.4250    6.8130   72.8090 O.2   332  GLU332     -0.2715
     34  CB        -4.8640    9.1520   70.9750 C.3   332  GLU332      0.0429
     35  CG        -5.8860    9.6730   69.9920 C.3   332  GLU332      0.1163
     36  CD        -6.3870   11.0590   70.3480 C.2   332  GLU332      0.3649
     37  OE1       -6.5830   11.4030   71.5390 O.co2 332  GLU332     -0.2457
     38  OE2       -6.6080   11.8540   69.4090 O.co2 332  GLU332     -0.2457
     39  N         -2.3140    7.4290   72.2930 N.am  333  HIS333     -0.1959
     40  CA        -1.6890    6.9710   73.5300 C.3   333  HIS333      0.1787
     41  C         -0.8130    8.0980   74.0820 C.2   333  HIS333      0.2620
     42  O          0.0980    8.5650   73.3730 O.2   333  HIS333     -0.2715
     43  CB        -0.7870    5.7690   73.2960 C.3   333  HIS333      0.0785
     44  CG        -1.4570    4.5990   72.6630 C.ar  333  HIS333      0.0821
     45  ND1       -1.5550    4.4650   71.2900 N.ar  333  HIS333     -0.2267
     46  CD2       -2.0660    3.5140   73.1880 C.ar  333  HIS333      0.1154
     47  CE1       -2.1950    3.3350   71.0050 C.ar  333  HIS333      0.1986
     48  NE2       -2.5090    2.7470   72.1440 N.ar  333  HIS333     -0.2212
     49  N         -1.1220    8.5640   75.2860 N.am  334  ILE334     -0.1977
     50  CA        -0.4270    9.7080   75.8220 C.3   334  ILE334      0.1596
     51  C          1.0570    9.4170   76.0850 C.2   334  ILE334      0.2287
     52  O          1.4670    8.2920   76.3970 O.2   334  ILE334     -0.2864
     53  CB        -1.1620   10.3310   77.0170 C.3   334  ILE334      0.0276
     54  CG1       -0.8700   11.8380   77.0390 C.3   334  ILE334      0.0022
     55  CG2       -0.7840    9.6290   78.3040 C.3   334  ILE334      0.0022
     56  CD1       -1.5180   12.6080   78.1390 C.3   334  ILE334      0.0001
     57  N          1.4590    5.4200   76.4030 N.3   354  GLY354     -0.1210
     58  CA         0.3140    4.6290   76.8810 C.3   354  GLY354      0.1956
     59  C          0.6010    3.9740   78.2300 C.2   354  GLY354      0.2611
     60  O          0.1240    2.8750   78.5120 O.2   354  GLY354     -0.2717
     61  N          1.4180    4.5980   79.0920 N.am  355  TYR355     -0.1976
     62  CA         1.7310    3.9810   80.3770 C.3   355  TYR355      0.1639
     63  C          0.4640    3.9920   81.2330 C.2   355  TYR355      0.2290
     64  O         -0.1550    5.0540   81.2930 O.2   355  TYR355     -0.2864
     65  CB         2.8320    4.7380   81.0770 C.3   355  TYR355      0.0560
     66  CG         3.3090    4.1620   82.3900 C.ar  355  TYR355     -0.0198
     67  CD1        4.3480    3.2360   82.3880 C.ar  355  TYR355     -0.0009
     68  CD2        2.7590    4.5440   83.5950 C.ar  355  TYR355     -0.0009
     69  CE1        4.8390    2.7140   83.5770 C.ar  355  TYR355      0.0417
     70  CE2        3.2330    4.0080   84.7820 C.ar  355  TYR355      0.0417
     71  CZ         4.2720    3.1030   84.7620 C.ar  355  TYR355      0.1957
     72  OH         4.7520    2.5610   85.9350 O.3   355  TYR355     -0.2866
     73  N          1.3440    9.7130   86.4310 N.3   362  LEU362     -0.1245
     74  CA         1.9480    9.7820   85.1000 C.3   362  LEU362      0.1561
     75  C          2.0370   11.2700   84.7260 C.2   362  LEU362      0.2260
     76  O          1.0210   11.9640   84.6420 O.2   362  LEU362     -0.2867
     77  CB         1.1880    9.0500   83.9880 C.3   362  LEU362      0.0270
     78  CG         1.7820    9.2730   82.5750 C.3   362  LEU362      0.0019
     79  CD1        3.1200    8.5600   82.3920 C.3   362  LEU362      0.0001
     80  CD2        0.7890    8.8660   81.5020 C.3   362  LEU362      0.0001
     81  N          2.3990   14.2010   82.3670 N.3   364  LYS364     -0.1245
     82  CA         2.2130   14.3380   80.9140 C.3   364  LYS364      0.1561
     83  C          2.0550   15.7710   80.4720 C.2   364  LYS364      0.2260
     84  O          2.0560   15.9860   79.2620 O.2   364  LYS364     -0.2867
     85  CB         1.0860   13.4310   80.4410 C.3   364  LYS364      0.0271
     86  CG        -0.2020   13.3740   81.2310 C.3   364  LYS364      0.0035
     87  CD        -0.9620   14.6880   81.2090 C.3   364  LYS364      0.0206
     88  CE        -2.2470   14.5830   82.0450 C.3   364  LYS364      0.1093
     89  NZ        -2.4560   15.8250   82.8710 N.3   364  LYS364     -0.1314
@<TRIPOS>BOND
     1    22    23    1
     2    25    24    2
     3    23    24    1
     4    23    26    1
     5    24    30   am
     6    38    36   ar
     7    26    27    1
     8    13    12    2
     9    35    36    1
    10    35    34    1
    11    30    31    1
    12    36    37   ar
    13    31    34    1
    14    31    32    1
    15    27    29   am
    16    27    28    2
    17    12    11    1
    18    47    45   ar
    19    47    48   ar
    20    45    44   ar
    21    14    11    1
    22    14    15    1
    23    11    10    1
    24    32    39   am
    25    32    33    2
    26    48    46   ar
    27    39    40    1
    28    44    46   ar
    29    44    43    1
    30    15    16   ar
    31    15    17   ar
    32    16    18   ar
    33    43    40    1
    34    42    41    2
    35     4     3    2
    36    40    41    1
    37    17    19   ar
    38    41    49   am
    39    18    20   ar
    40     3     2    1
    41    19    20   ar
    42    20    21    1
    43    49    50    1
    44     1     2    1
    45    50    51    1
    46    50    53    1
    47     2     5    1
    48    51    52    2
    49     5     6    1
    50    57    58    1
    51    58    59    1
    52    53    54    1
    53    53    55    1
    54    54    56    1
    55     6     7    1
    56    59    60    2
    57    59    61   am
    58     7     8    1
    59     9     8    1
    60    61    62    1
    61    84    83    2
    62    62    65    1
    63    62    63    1
    64    85    82    1
    65    85    86    1
    66    83    82    1
    67    82    81    1
    68    65    66    1
    69    87    86    1
    70    87    88    1
    71    63    64    2
    72    80    78    1
    73    88    89    1
    74    67    66   ar
    75    67    69   ar
    76    66    68   ar
    77    79    78    1
    78    78    77    1
    79    69    71   ar
    80    68    70   ar
    81    77    74    1
    82    76    75    2
    83    75    74    1
    84    71    70   ar
    85    71    72    1
    86    74    73    1
