@<TRIPOS>MOLECULE
tmp/1d0jF00.pdb
 153 150 0 0 0
SMALL
GASTEIGER

@<TRIPOS>ATOM
      1  N        -29.1240   47.3640   74.4090 N.3    60  ARG60      -0.1245
      2  CA       -28.7070   47.2230   73.0240 C.3    60  ARG60       0.1563
      3  C        -29.9110   47.7150   72.2350 C.2    60  ARG60       0.2260
      4  O        -31.0440   47.2770   72.4690 O.2    60  ARG60      -0.2867
      5  CB       -28.3950   45.7600   72.6930 C.3    60  ARG60       0.0307
      6  CG       -27.6750   45.5930   71.3630 C.3    60  ARG60       0.0489
      7  CD       -27.0440   44.2130   71.1950 C.3    60  ARG60       0.2205
      8  NE       -25.9380   44.2700   70.2360 N.pl3  60  ARG60      -0.0865
      9  CZ       -25.8470   43.5380   69.1270 C.cat  60  ARG60       0.5346
     10  NH1      -26.8020   42.6700   68.8130 N.pl3  60  ARG60       0.1354
     11  NH2      -24.7920   43.6740   68.3250 N.pl3  60  ARG60       0.1354
     12  N        -31.5790   48.8300   68.2690 N.3    62  TYR62      -0.1241
     13  CA       -31.5030   48.7710   66.8050 C.3    62  TYR62       0.1605
     14  C        -32.3720   49.9230   66.3230 C.2    62  TYR62       0.2264
     15  O        -33.5980   49.8140   66.3110 O.2    62  TYR62      -0.2867
     16  CB       -32.0610   47.4600   66.2310 C.3    62  TYR62       0.0534
     17  CG       -31.2230   46.2180   66.4750 C.ar   62  TYR62      -0.0201
     18  CD1      -31.2410   45.5620   67.7070 C.ar   62  TYR62      -0.0009
     19  CD2      -30.4130   45.6920   65.4630 C.ar   62  TYR62      -0.0009
     20  CE1      -30.4720   44.4090   67.9210 C.ar   62  TYR62       0.0417
     21  CE2      -29.6440   44.5490   65.6660 C.ar   62  TYR62       0.0417
     22  CZ       -29.6780   43.9160   66.8930 C.ar   62  TYR62       0.1957
     23  OH       -28.8930   42.8100   67.0970 O.3    62  TYR62      -0.2866
     24  N        -34.7710   44.8390   64.6270 N.3    66  ASP66      -0.1225
     25  CA       -34.1330   43.5230   64.6660 C.3    66  ASP66       0.1805
     26  C        -35.2660   42.5150   64.5960 C.2    66  ASP66       0.2598
     27  O        -36.3700   42.7820   65.0950 O.2    66  ASP66      -0.2718
     28  CB       -33.3950   43.3010   65.9790 C.3    66  ASP66       0.1424
     29  CG       -32.8230   41.8830   66.1030 C.2    66  ASP66       0.3668
     30  OD1      -31.8110   41.5890   65.4290 O.co2  66  ASP66      -0.2456
     31  OD2      -33.3910   41.0640   66.8700 O.co2  66  ASP66      -0.2456
     32  N        -34.9990   41.3610   63.9880 N.am   67  GLY67      -0.1957
     33  CA       -36.0230   40.3430   63.8750 C.3    67  GLY67       0.1869
     34  C        -37.3300   40.8870   63.3270 C.2    67  GLY67       0.2309
     35  O        -37.3520   41.6470   62.3460 O.2    67  GLY67      -0.2863
     36  N        -37.2760   44.5070   62.0740 N.3    70  ARG70      -0.1245
     37  CA       -36.3630   45.0210   61.0610 C.3    70  ARG70       0.1563
     38  C        -37.0080   45.9970   60.0600 C.2    70  ARG70       0.2260
     39  O        -38.1670   45.8470   59.6690 O.2    70  ARG70      -0.2867
     40  CB       -35.7190   43.8550   60.3130 C.3    70  ARG70       0.0307
     41  CG       -34.2940   44.0680   59.8780 C.3    70  ARG70       0.0489
     42  CD       -33.7060   42.8290   59.1600 C.3    70  ARG70       0.2205
     43  NE       -33.4820   41.6620   60.0210 N.pl3  70  ARG70      -0.0865
     44  CZ       -32.5360   41.5840   60.9550 C.cat  70  ARG70       0.5346
     45  NH1      -31.7210   42.6070   61.1760 N.pl3  70  ARG70       0.1354
     46  NH2      -32.3620   40.4610   61.6350 N.pl3  70  ARG70       0.1354
     47  N        -33.3370   46.1110   73.4520 N.3    77  PHE77      -0.1241
     48  CA       -33.1230   44.9050   74.2550 C.3    77  PHE77       0.1605
     49  C        -32.3960   45.1900   75.5690 C.2    77  PHE77       0.2264
     50  O        -31.6830   46.1850   75.7070 O.2    77  PHE77      -0.2867
     51  CB       -32.3150   43.8430   73.4940 C.3    77  PHE77       0.0534
     52  CG       -32.9550   43.3830   72.2290 C.ar   77  PHE77      -0.0203
     53  CD1      -32.8920   44.1590   71.0760 C.ar   77  PHE77      -0.0042
     54  CD2      -33.6600   42.1880   72.1940 C.ar   77  PHE77      -0.0042
     55  CE1      -33.5290   43.7510   69.9020 C.ar   77  PHE77      -0.0003
     56  CE2      -34.2990   41.7710   71.0310 C.ar   77  PHE77      -0.0003
     57  CZ       -34.2350   42.5550   69.8820 C.ar   77  PHE77      -0.0000
     58  N        -41.4770   43.7710   81.0680 N.3   114  PHE114     -0.1227
     59  CA       -41.5270   42.3270   80.9570 C.3   114  PHE114      0.1736
     60  C        -40.8560   41.6840   82.1580 C.2   114  PHE114      0.2595
     61  O        -40.0430   42.3120   82.8390 O.2   114  PHE114     -0.2718
     62  CB       -40.8360   41.8780   79.6610 C.3   114  PHE114      0.0547
     63  CG       -39.3390   42.0960   79.6470 C.ar  114  PHE114     -0.0202
     64  CD1      -38.4830   41.2200   80.3200 C.ar  114  PHE114     -0.0042
     65  CD2      -38.7850   43.1900   78.9800 C.ar  114  PHE114     -0.0042
     66  CE1      -37.0970   41.4340   80.3240 C.ar  114  PHE114     -0.0003
     67  CE2      -37.4040   43.4150   78.9770 C.ar  114  PHE114     -0.0003
     68  CZ       -36.5590   42.5400   79.6480 C.ar  114  PHE114     -0.0000
     69  N        -41.2160   40.4320   82.4180 N.am  115  ARG115     -0.1966
     70  CA       -40.6450   39.6600   83.5130 C.3   115  ARG115      0.1714
     71  C        -39.7560   38.6240   82.8520 C.2   115  ARG115      0.2458
     72  O        -40.1760   37.9320   81.9390 O.2   115  ARG115     -0.2730
     73  CB       -41.7540   38.9900   84.3230 C.3   115  ARG115      0.0347
     74  CG       -42.6370   39.9920   85.0400 C.3   115  ARG115      0.0492
     75  CD       -43.7610   39.3420   85.8150 C.3   115  ARG115      0.2205
     76  NE       -44.4900   40.3210   86.6220 N.pl3 115  ARG115     -0.0865
     77  CZ       -43.9440   41.0540   87.5970 C.cat 115  ARG115      0.5346
     78  NH1      -42.6540   40.9240   87.8970 N.pl3 115  ARG115      0.1354
     79  NH2      -44.6860   41.9120   88.2890 N.pl3 115  ARG115      0.1354
     80  N        -38.5110   38.4980   83.3090 N.am  116  PRO116     -0.2716
     81  CA       -37.5850   37.5300   82.7200 C.3   116  PRO116      0.1536
     82  C        -38.1120   36.1080   82.6430 C.2   116  PRO116      0.2598
     83  O        -38.7860   35.6320   83.5580 O.2   116  PRO116     -0.2715
     84  CB       -36.3690   37.6360   83.6330 C.3   116  PRO116      0.0310
     85  CG       -36.4180   39.0920   84.0400 C.3   116  PRO116      0.0237
     86  CD       -37.8680   39.1910   84.4360 C.3   116  PRO116      0.0939
     87  N        -37.8060   35.4420   81.5340 N.am  117  ASP117     -0.1972
     88  CA       -38.1800   34.0520   81.3360 C.3   117  ASP117      0.1709
     89  C        -37.0520   33.2170   81.9380 C.2   117  ASP117      0.2293
     90  O        -36.0250   32.9900   81.3040 O.2   117  ASP117     -0.2864
     91  CB       -38.3270   33.7510   79.8400 C.3   117  ASP117      0.1436
     92  CG       -38.4520   32.2530   79.5440 C.2   117  ASP117      0.3671
     93  OD1      -39.2360   31.5620   80.2280 O.co2 117  ASP117     -0.2456
     94  OD2      -37.7730   31.7710   78.6110 O.co2 117  ASP117     -0.2456
     95  N        -34.8660   31.1390   79.8780 N.3   120  SER120     -0.1202
     96  CA       -34.0860   31.7530   78.8060 C.3   120  SER120      0.2020
     97  C        -32.6000   31.8210   79.1070 C.2   120  SER120      0.2619
     98  O        -32.2000   31.9970   80.2520 O.2   120  SER120     -0.2717
     99  CB       -34.6070   33.1610   78.5120 C.3   120  SER120      0.2103
    100  OG       -33.8690   33.7690   77.4650 O.3   120  SER120     -0.2182
    101  N        -31.7880   31.6870   78.0640 N.am  121  SER121     -0.1937
    102  CA       -30.3380   31.7240   78.1990 C.3   121  SER121      0.2055
    103  C        -29.8600   33.1600   78.3200 C.2   121  SER121      0.2644
    104  O        -28.6610   33.4450   78.2470 O.2   121  SER121     -0.2714
    105  CB       -29.6770   31.0700   76.9870 C.3   121  SER121      0.2130
    106  OG       -30.0580   31.7330   75.7940 O.3   121  SER121     -0.2179
    107  N        -30.8150   34.0660   78.4900 N.am  122  SER122     -0.1935
    108  CA       -30.5020   35.4790   78.6400 C.3   122  SER122      0.2055
    109  C        -30.3450   35.8150   80.1160 C.2   122  SER122      0.2643
    110  O        -29.5890   36.7200   80.4750 O.2   122  SER122     -0.2714
    111  CB       -31.6220   36.3460   78.0530 C.3   122  SER122      0.2130
    112  OG       -31.7600   36.1570   76.6610 O.3   122  SER122     -0.2179
    113  N        -31.0460   35.0700   80.9690 N.am  123  PHE123     -0.1973
    114  CA       -31.0090   35.3410   82.3970 C.3   123  PHE123      0.1639
    115  C        -30.2790   34.3130   83.2500 C.2   123  PHE123      0.2290
    116  O        -30.5030   34.2180   84.4570 O.2   123  PHE123     -0.2864
    117  CB       -32.4370   35.5330   82.9060 C.3   123  PHE123      0.0560
    118  CG       -33.2520   36.4590   82.0530 C.ar  123  PHE123     -0.0200
    119  CD1      -34.1180   35.9560   81.0870 C.ar  123  PHE123     -0.0042
    120  CD2      -33.1170   37.8380   82.1740 C.ar  123  PHE123     -0.0042
    121  CE1      -34.8390   36.8170   80.2540 C.ar  123  PHE123     -0.0003
    122  CE2      -33.8300   38.7000   81.3480 C.ar  123  PHE123     -0.0003
    123  CZ       -34.6930   38.1890   80.3890 C.ar  123  PHE123     -0.0000
    124  N        -27.2750   36.6600   75.8090 N.3   132  ILE132     -0.1231
    125  CA       -27.9890   37.0710   74.6150 C.3   132  ILE132      0.1692
    126  C        -29.0270   38.1210   74.9810 C.2   132  ILE132      0.2592
    127  O        -29.8210   37.9440   75.9030 O.2   132  ILE132     -0.2718
    128  CB       -28.6870   35.8670   73.9650 C.3   132  ILE132      0.0266
    129  CG1      -27.6340   34.8520   73.5250 C.3   132  ILE132      0.0019
    130  CG2      -29.5500   36.3230   72.7960 C.3   132  ILE132      0.0020
    131  CD1      -28.2130   33.5470   73.0270 C.3   132  ILE132      0.0001
    132  N        -29.0190   39.2230   74.2490 N.am  133  ALA133     -0.1966
    133  CA       -29.9720   40.2860   74.5100 C.3   133  ALA133      0.1728
    134  C        -31.3910   39.7740   74.3110 C.2   133  ALA133      0.2617
    135  O        -31.6580   38.9570   73.4310 O.2   133  ALA133     -0.2715
    136  CB       -29.7040   41.4750   73.5910 C.3   133  ALA133      0.0334
    137  N        -32.2900   40.2740   75.1470 N.am  134  SER134     -0.1936
    138  CA       -33.6990   39.9160   75.1310 C.3   134  SER134      0.2058
    139  C        -34.5080   41.1730   75.4470 C.2   134  SER134      0.2682
    140  O        -34.1200   41.9500   76.3120 O.2   134  SER134     -0.2710
    141  CB       -33.9660   38.8450   76.1900 C.3   134  SER134      0.2130
    142  OG       -35.3480   38.7360   76.4580 O.3   134  SER134     -0.2179
    143  N        -35.6280   41.3740   74.7540 N.am  135  GLY135     -0.1729
    144  CA       -36.4170   42.5560   75.0180 C.2   135  GLY135      0.1340
    145  C        -37.6400   42.8100   74.1620 C.2   135  GLY135      0.2521
    146  O        -38.5850   42.0180   74.1580 O.2   135  GLY135     -0.2816
    147  N        -38.5210   43.6280   70.2570 N.3   137  PRO137     -0.2116
    148  CA       -38.2240   43.8130   68.8320 C.3   137  PRO137      0.1372
    149  C        -39.1280   44.8810   68.2260 C.2   137  PRO137      0.2244
    150  O        -38.7210   45.6410   67.3480 O.2   137  PRO137     -0.2868
    151  CB       -38.4900   42.4250   68.2480 C.3   137  PRO137      0.0268
    152  CG       -38.1570   41.5210   69.4080 C.3   137  PRO137      0.0207
    153  CD       -38.9340   42.2360   70.4960 C.3   137  PRO137      0.0892
@<TRIPOS>BOND
     1    42    41    1
     2    42    43    1
     3    39    38    2
     4    41    40    1
     5    43    44    2
     6    38    37    1
     7    40    37    1
     8    44    45    1
     9    44    46    1
    10    37    36    1
    11    35    34    2
    12    34    33    1
    13    33    32    1
    14    32    26   am
    15    26    25    1
    16    26    27    2
    17    24    25    1
    18    25    28    1
    19    30    29   ar
    20    19    21   ar
    21    19    17   ar
    22    21    22   ar
    23    28    29    1
    24    29    31   ar
    25    16    17    1
    26    16    13    1
    27    15    14    2
    28    14    13    1
    29    17    18   ar
    30    13    12    1
    31    22    23    1
    32    22    20   ar
    33   150   149    2
    34    18    20   ar
    35   149   148    1
    36   151   148    1
    37   151   152    1
    38    11     9    1
    39    10     9    1
    40   148   147    1
    41     9     8    2
    42   152   153    1
    43    57    55   ar
    44    57    56   ar
    45    55    53   ar
    46     8     7    1
    47   147   153    1
    48    56    54   ar
    49    53    52   ar
    50     7     6    1
    51     6     5    1
    52    54    52   ar
    53    52    51    1
    54     3     4    2
    55     3     2    1
    56     5     2    1
    57   130   128    1
    58     2     1    1
    59   131   129    1
    60   135   134    2
    61    47    48    1
    62    51    48    1
    63   129   128    1
    64   136   133    1
    65   128   125    1
    66   146   145    2
    67   145   144    1
    68   132   133    1
    69   132   126   am
    70    48    49    1
    71   134   133    1
    72   134   137   am
    73   125   126    1
    74   125   124    1
    75   143   144    2
    76   143   139    1
    77   126   127    2
    78   138   137    1
    79   138   139    1
    80   138   141    1
    81   139   140    2
    82    49    50    2
    83   106   105    1
    84   141   142    1
    85   112   111    1
    86   105   102    1
    87   100    99    1
    88   111   108    1
    89   101   102    1
    90   101    97   am
    91   102   103    1
    92   104   103    2
    93   103   107   am
    94   107   108    1
    95    99    96    1
    96    94    92   ar
    97   108   109    1
    98    96    97    1
    99    96    95    1
   100    67    65   ar
   101    67    68   ar
   102    65    63   ar
   103    97    98    2
   104    92    91    1
   105    92    93   ar
   106    63    62    1
   107    63    64   ar
   108    68    66   ar
   109    62    59    1
   110    91    88    1
   111   109   110    2
   112   109   113   am
   113   121   123   ar
   114   121   119   ar
   115    64    66   ar
   116   123   122   ar
   117    59    58    1
   118    59    60    1
   119   113   114    1
   120   119   118   ar
   121    90    89    2
   122    88    87    1
   123    88    89    1
   124   122   120   ar
   125    87    82   am
   126    72    71    2
   127   118   120   ar
   128   118   117    1
   129    60    69   am
   130    60    61    2
   131   114   117    1
   132   114   115    1
   133    69    70    1
   134    82    81    1
   135    82    83    2
   136    81    80    1
   137    81    84    1
   138    71    80   am
   139    71    70    1
   140   115   116    2
   141    80    86    1
   142    70    73    1
   143    84    85    1
   144    85    86    1
   145    73    74    1
   146    74    75    1
   147    75    76    1
   148    76    77    2
   149    77    78    1
   150    77    79    1
