@<TRIPOS>MOLECULE
tmp/1d0jD00.pdb
 164 162 0 0 0
SMALL
GASTEIGER

@<TRIPOS>ATOM
      1  N         -6.8640   45.8720  105.8220 N.3    60  ARG60      -0.1245
      2  CA        -5.5690   45.2380  105.6510 C.3    60  ARG60       0.1563
      3  C         -5.7350   43.7890  106.0910 C.2    60  ARG60       0.2260
      4  O         -6.3160   43.5190  107.1500 O.2    60  ARG60      -0.2867
      5  CB        -4.5080   45.9280  106.4970 C.3    60  ARG60       0.0307
      6  CG        -3.1180   45.5020  106.1080 C.3    60  ARG60       0.0489
      7  CD        -2.0680   46.2750  106.8490 C.3    60  ARG60       0.2205
      8  NE        -0.7570   45.9620  106.2960 N.pl3  60  ARG60      -0.0865
      9  CZ         0.3790   46.5100  106.7060 C.cat  60  ARG60       0.5346
     10  NH1        0.3690   47.4080  107.6820 N.pl3  60  ARG60       0.1354
     11  NH2        1.5230   46.1690  106.1300 N.pl3  60  ARG60       0.1354
     12  N         -3.9840   39.5580  106.2490 N.3    62  TYR62      -0.1241
     13  CA        -2.8170   38.6780  106.2160 C.3    62  TYR62       0.1605
     14  C         -3.3470   37.3010  105.8400 C.2    62  TYR62       0.2264
     15  O         -3.9580   36.6210  106.6670 O.2    62  TYR62      -0.2867
     16  CB        -2.1230   38.6010  107.5730 C.3    62  TYR62       0.0534
     17  CG        -1.4670   39.8840  108.0000 C.ar   62  TYR62      -0.0201
     18  CD1       -2.2230   40.9570  108.4650 C.ar   62  TYR62      -0.0009
     19  CD2       -0.0880   40.0440  107.8970 C.ar   62  TYR62      -0.0009
     20  CE1       -1.6220   42.1620  108.8190 C.ar   62  TYR62       0.0417
     21  CE2        0.5230   41.2420  108.2450 C.ar   62  TYR62       0.0417
     22  CZ        -0.2510   42.2980  108.7040 C.ar   62  TYR62       0.1957
     23  OH         0.3470   43.4930  109.0390 O.3    62  TYR62      -0.2866
     24  N         -1.1850   37.2940  111.3910 N.3    66  ASP66      -0.1225
     25  CA        -0.3420   38.3340  111.9620 C.3    66  ASP66       0.1805
     26  C         -0.4600   38.1480  113.4690 C.2    66  ASP66       0.2598
     27  O         -1.5000   37.6830  113.9560 O.2    66  ASP66      -0.2718
     28  CB        -0.8580   39.7320  111.5960 C.3    66  ASP66       0.1424
     29  CG        -0.0760   40.8490  112.2930 C.2    66  ASP66       0.3668
     30  OD1        1.1000   41.0920  111.9250 O.co2  66  ASP66      -0.2456
     31  OD2       -0.6370   41.4720  113.2220 O.co2  66  ASP66      -0.2456
     32  N          0.6010   38.5110  114.1970 N.am   67  GLY67      -0.1957
     33  CA         0.6080   38.3730  115.6420 C.3    67  GLY67       0.1869
     34  C          0.0980   37.0130  116.0870 C.2    67  GLY67       0.2309
     35  O          0.5150   35.9680  115.5560 O.2    67  GLY67      -0.2863
     36  N         -0.4270   34.5070  113.2260 N.3    70  ARG70      -0.1245
     37  CA         0.6020   34.1410  112.2540 C.3    70  ARG70       0.1563
     38  C          0.7240   32.6340  112.0090 C.2    70  ARG70       0.2260
     39  O          0.5130   31.8260  112.9100 O.2    70  ARG70      -0.2867
     40  CB         1.9420   34.7070  112.6960 C.3    70  ARG70       0.0307
     41  CG         2.8450   34.8420  111.4690 C.3    70  ARG70       0.0489
     42  CD         4.1660   35.4590  111.8570 C.3    70  ARG70       0.2205
     43  NE         4.0230   36.5150  112.8290 N.pl3  70  ARG70      -0.0865
     44  CZ         4.0220   37.7420  112.3760 C.cat  70  ARG70       0.5346
     45  NH1        4.1580   37.9640  111.0780 N.pl3  70  ARG70       0.1354
     46  NH2        3.9050   38.7280  113.2350 N.pl3  70  ARG70       0.1354
     47  N         -7.7640   43.2780  109.3730 N.3    77  PHE77      -0.1241
     48  CA        -7.8510   44.4930  110.1750 C.3    77  PHE77       0.1605
     49  C         -8.6220   45.6440  109.5010 C.2    77  PHE77       0.2264
     50  O         -8.7860   45.6890  108.2740 O.2    77  PHE77      -0.2867
     51  CB        -6.4480   44.9940  110.5430 C.3    77  PHE77       0.0534
     52  CG        -5.6180   44.0020  111.3100 C.ar   77  PHE77      -0.0203
     53  CD1       -5.0570   42.8970  110.6730 C.ar   77  PHE77      -0.0042
     54  CD2       -5.4150   44.1610  112.6820 C.ar   77  PHE77      -0.0042
     55  CE1       -4.3080   41.9660  111.3930 C.ar   77  PHE77      -0.0003
     56  CE2       -4.6710   43.2370  113.4070 C.ar   77  PHE77      -0.0003
     57  CZ        -4.1180   42.1410  112.7680 C.ar   77  PHE77      -0.0000
     58  N        -17.0640   41.0020  114.7290 N.3   113  ALA113     -0.1231
     59  CA       -17.3220   42.4250  114.8650 C.3   113  ALA113      0.1694
     60  C        -16.7130   42.9800  116.1570 C.2   113  ALA113      0.2592
     61  O        -16.4530   42.2350  117.1120 O.2   113  ALA113     -0.2718
     62  CB       -18.8230   42.6760  114.8300 C.3   113  ALA113      0.0304
     63  N        -16.4940   44.2940  116.1870 N.am  114  PHE114     -0.1962
     64  CA       -15.9050   44.9320  117.3550 C.3   114  PHE114      0.1771
     65  C        -16.2350   46.4210  117.4070 C.2   114  PHE114      0.2619
     66  O        -16.4250   47.0500  116.3730 O.2   114  PHE114     -0.2715
     67  CB       -14.3820   44.7450  117.3250 C.3   114  PHE114      0.0574
     68  CG       -13.6860   45.5370  116.2450 C.ar  114  PHE114     -0.0200
     69  CD1      -13.5550   46.9240  116.3460 C.ar  114  PHE114     -0.0042
     70  CD2      -13.1850   44.9000  115.1150 C.ar  114  PHE114     -0.0042
     71  CE1      -12.9380   47.6650  115.3320 C.ar  114  PHE114     -0.0003
     72  CE2      -12.5690   45.6280  114.0970 C.ar  114  PHE114     -0.0003
     73  CZ       -12.4460   47.0140  114.2050 C.ar  114  PHE114     -0.0000
     74  N        -16.3110   46.9740  118.6160 N.am  115  ARG115     -0.1964
     75  CA       -16.5730   48.4010  118.7970 C.3   115  ARG115      0.1714
     76  C        -15.2180   49.0510  119.0720 C.2   115  ARG115      0.2458
     77  O        -14.4240   48.5550  119.8760 O.2   115  ARG115     -0.2730
     78  CB       -17.5270   48.6400  119.9700 C.3   115  ARG115      0.0347
     79  CG       -18.9060   48.0500  119.7560 C.3   115  ARG115      0.0492
     80  CD       -19.8350   48.3770  120.9040 C.3   115  ARG115      0.2205
     81  NE       -21.1690   47.8220  120.6830 N.pl3 115  ARG115     -0.0865
     82  CZ       -21.9850   48.1750  119.6890 C.cat 115  ARG115      0.5346
     83  NH1      -21.6100   49.0970  118.8070 N.pl3 115  ARG115      0.1354
     84  NH2      -23.1820   47.6020  119.5760 N.pl3 115  ARG115      0.1354
     85  N        -14.9350   50.1820  118.4170 N.am  116  PRO116     -0.2716
     86  CA       -13.6480   50.8380  118.6300 C.3   116  PRO116      0.1536
     87  C        -13.3020   51.0960  120.0850 C.2   116  PRO116      0.2598
     88  O        -14.1720   51.3500  120.9150 O.2   116  PRO116     -0.2715
     89  CB       -13.8000   52.1260  117.8320 C.3   116  PRO116      0.0310
     90  CG       -14.6800   51.6800  116.7070 C.3   116  PRO116      0.0237
     91  CD       -15.7520   50.9740  117.4890 C.3   116  PRO116      0.0939
     92  N        -12.0100   51.0070  120.3750 N.am  117  ASP117     -0.1972
     93  CA       -11.4820   51.2730  121.7020 C.3   117  ASP117      0.1709
     94  C        -11.0250   52.7210  121.6450 C.2   117  ASP117      0.2293
     95  O         -9.9080   53.0140  121.2180 O.2   117  ASP117     -0.2864
     96  CB       -10.3050   50.3320  121.9990 C.3   117  ASP117      0.1436
     97  CG        -9.6030   50.6630  123.3060 C.2   117  ASP117      0.3671
     98  OD1      -10.3040   50.9040  124.3140 O.co2 117  ASP117     -0.2456
     99  OD2       -8.3510   50.6640  123.3250 O.co2 117  ASP117     -0.2456
    100  N         -7.5720   53.7950  121.9990 N.3   120  SER120     -0.1202
    101  CA        -6.5870   53.3400  121.0270 C.3   120  SER120      0.2020
    102  C         -6.1560   54.4020  120.0180 C.2   120  SER120      0.2619
    103  O         -6.9250   55.3020  119.6650 O.2   120  SER120     -0.2717
    104  CB        -7.1150   52.1170  120.2850 C.3   120  SER120      0.2103
    105  OG        -6.1250   51.6200  119.4050 O.3   120  SER120     -0.2182
    106  N         -4.9180   54.2830  119.5510 N.am  121  SER121     -0.1937
    107  CA        -4.3640   55.2220  118.5800 C.3   121  SER121      0.2055
    108  C         -4.9540   54.9840  117.1840 C.2   121  SER121      0.2644
    109  O         -4.8280   55.8170  116.2790 O.2   121  SER121     -0.2714
    110  CB        -2.8480   55.0570  118.5080 C.3   121  SER121      0.2130
    111  OG        -2.5160   53.7500  118.0610 O.3   121  SER121     -0.2179
    112  N         -5.5940   53.8370  117.0180 N.am  122  SER122     -0.1935
    113  CA        -6.1840   53.4850  115.7430 C.3   122  SER122      0.2055
    114  C         -7.4060   54.3270  115.3810 C.2   122  SER122      0.2643
    115  O         -7.6970   54.5210  114.2030 O.2   122  SER122     -0.2714
    116  CB        -6.5610   52.0080  115.7500 C.3   122  SER122      0.2130
    117  OG        -5.4110   51.2080  115.9020 O.3   122  SER122     -0.2179
    118  N         -8.1110   54.8380  116.3860 N.am  123  PHE123     -0.1973
    119  CA        -9.3120   55.6070  116.1160 C.3   123  PHE123      0.1639
    120  C         -9.2040   57.0800  116.4610 C.2   123  PHE123      0.2290
    121  O        -10.2040   57.7510  116.7310 O.2   123  PHE123     -0.2864
    122  CB       -10.4940   54.9730  116.8350 C.3   123  PHE123      0.0560
    123  CG       -10.5710   53.4890  116.6470 C.ar  123  PHE123     -0.0200
    124  CD1       -9.8420   52.6330  117.4670 C.ar  123  PHE123     -0.0042
    125  CD2      -11.3210   52.9450  115.6140 C.ar  123  PHE123     -0.0042
    126  CE1       -9.8630   51.2610  117.2610 C.ar  123  PHE123     -0.0003
    127  CE2      -11.3460   51.5790  115.3990 C.ar  123  PHE123     -0.0003
    128  CZ       -10.6150   50.7310  116.2260 C.ar  123  PHE123     -0.0000
    129  N         -2.9210   53.0710  112.7880 N.3   132  ILE132     -0.1231
    130  CA        -2.4790   51.7080  112.9870 C.3   132  ILE132      0.1692
    131  C         -3.6730   50.7980  112.7890 C.2   132  ILE132      0.2592
    132  O         -4.7170   50.9860  113.4100 O.2   132  ILE132     -0.2718
    133  CB        -1.9190   51.5060  114.4070 C.3   132  ILE132      0.0266
    134  CG1       -0.7040   52.4120  114.6200 C.3   132  ILE132      0.0019
    135  CG2       -1.5460   50.0440  114.6190 C.3   132  ILE132      0.0020
    136  CD1       -0.0800   52.2870  115.9970 C.3   132  ILE132      0.0001
    137  N         -3.5220   49.8160  111.9120 N.am  133  ALA133     -0.1966
    138  CA        -4.6000   48.8760  111.6610 C.3   133  ALA133      0.1728
    139  C         -5.0160   48.2380  112.9760 C.2   133  ALA133      0.2617
    140  O         -4.2340   48.1540  113.9200 O.2   133  ALA133     -0.2715
    141  CB        -4.1560   47.8040  110.6730 C.3   133  ALA133      0.0334
    142  N         -6.2560   47.7780  113.0210 N.am  134  SER134     -0.1936
    143  CA        -6.8010   47.1620  114.2100 C.3   134  SER134      0.2055
    144  C         -7.9960   46.3300  113.7720 C.2   134  SER134      0.2644
    145  O         -8.8990   46.8450  113.1100 O.2   134  SER134     -0.2714
    146  CB        -7.2320   48.2570  115.1830 C.3   134  SER134      0.2130
    147  OG        -7.9810   47.7220  116.2530 O.3   134  SER134     -0.2179
    148  N         -8.0000   45.0460  114.1280 N.am  135  GLY135     -0.1939
    149  CA        -9.1000   44.1870  113.7310 C.3   135  GLY135      0.2014
    150  C         -9.1400   42.8500  114.4310 C.2   135  GLY135      0.2639
    151  O         -9.1880   42.7830  115.6580 O.2   135  GLY135     -0.2714
    152  N         -9.1120   41.7800  113.6460 N.am  136  CYS136     -0.1954
    153  CA        -9.1740   40.4360  114.1970 C.3   136  CYS136      0.1828
    154  C         -8.0210   39.5500  113.7320 C.2   136  CYS136      0.2467
    155  O         -8.0580   38.9790  112.6330 O.2   136  CYS136     -0.2730
    156  CB       -10.5150   39.7960  113.8290 C.3   136  CYS136      0.0996
    157  SG       -11.9510   40.8050  114.3370 S.3   136  CYS136     -0.0797
    158  N         -6.9830   39.4080  114.5830 N.am  137  PRO137     -0.2726
    159  CA        -5.8010   38.5950  114.2870 C.3   137  PRO137      0.1402
    160  C         -6.2250   37.1510  114.0830 C.2   137  PRO137      0.2269
    161  O         -5.6600   36.4220  113.2670 O.2   137  PRO137     -0.2865
    162  CB        -4.9530   38.7720  115.5470 C.3   137  PRO137      0.0296
    163  CG        -5.3700   40.1480  116.0400 C.3   137  PRO137      0.0237
    164  CD        -6.8590   39.9810  115.9360 C.3   137  PRO137      0.0939
@<TRIPOS>BOND
     1     2     1    1
     2     2     3    1
     3     2     5    1
     4    14    13    1
     5    14    15    2
     6     3     4    2
     7     6     5    1
     8     6     7    1
     9    11     9    1
    10    13    12    1
    11    13    16    1
    12     8     9    2
    13     8     7    1
    14     9    10    1
    15    16    17    1
    16    19    17   ar
    17    19    21   ar
    18    17    18   ar
    19    21    22   ar
    20    50    49    2
    21    18    20   ar
    22    22    20   ar
    23    22    23    1
    24    47    48    1
    25    49    48    1
    26    48    51    1
    27    51    52    1
    28   141   138    1
    29    53    52   ar
    30    53    55   ar
    31    45    44    1
    32    52    54   ar
    33    24    25    1
    34    55    57   ar
    35    41    42    1
    36    41    40    1
    37    28    25    1
    38    28    29    1
    39   138   137    1
    40   138   139    1
    41    42    43    1
    42   137   131   am
    43    30    29   ar
    44    25    26    1
    45    38    37    1
    46    38    39    2
    47    37    40    1
    48    37    36    1
    49    29    31   ar
    50    44    43    2
    51    44    46    1
    52   155   154    2
    53    54    56   ar
    54    57    56   ar
    55   129   130    1
    56   131   130    1
    57   131   132    2
    58   139   142   am
    59   139   140    2
    60   130   133    1
    61   142   143    1
    62   145   144    2
    63   161   160    2
    64    26    27    2
    65    26    32   am
    66   152   153    1
    67   152   150   am
    68   149   148    1
    69   149   150    1
    70   154   153    1
    71   154   158   am
    72   144   148   am
    73   144   143    1
    74   156   153    1
    75   156   157    1
    76   160   159    1
    77    72    73   ar
    78    72    70   ar
    79    32    33    1
    80   115   114    2
    81    73    71   ar
    82   143   146    1
    83   159   158    1
    84   159   162    1
    85   133   135    1
    86   133   134    1
    87   150   151    2
    88   158   164    1
    89   134   136    1
    90    58    59    1
    91    62    59    1
    92    59    60    1
    93    70    68   ar
    94   146   147    1
    95    71    69   ar
    96   114   113    1
    97   114   118   am
    98   127   125   ar
    99   127   128   ar
   100   162   163    1
   101    35    34    2
   102   125   123   ar
   103    33    34    1
   104   113   116    1
   105   113   112    1
   106   116   117    1
   107   164   163    1
   108   119   118    1
   109   119   120    1
   110   119   122    1
   111    60    63   am
   112    60    61    2
   113    63    64    1
   114   128   126   ar
   115    68    69   ar
   116    68    67    1
   117   109   108    2
   118    66    65    2
   119   120   121    2
   120   123   122    1
   121   123   124   ar
   122    90    91    1
   123    90    89    1
   124   112   108   am
   125   108   107    1
   126   126   124   ar
   127    67    64    1
   128    64    65    1
   129    65    74   am
   130    91    85    1
   131    89    86    1
   132   111   110    1
   133    85    86    1
   134    85    76   am
   135   110   107    1
   136   107   106    1
   137    74    75    1
   138    86    87    1
   139    75    76    1
   140    75    78    1
   141    83    82    1
   142    76    77    2
   143   105   104    1
   144   106   102   am
   145    84    82    1
   146   103   102    2
   147    82    81    2
   148    79    78    1
   149    79    80    1
   150   102   101    1
   151    87    92   am
   152    87    88    2
   153   104   101    1
   154    92    93    1
   155    81    80    1
   156   101   100    1
   157    95    94    2
   158    94    93    1
   159    93    96    1
   160    96    97    1
   161    97    99   ar
   162    97    98   ar
