@<TRIPOS>MOLECULE
tmp/1d0jE00.pdb
 151 146 0 0 0
SMALL
GASTEIGER

@<TRIPOS>ATOM
      1  N        -19.5750   79.6040   92.4360 N.3    60  ARG60      -0.1245
      2  CA       -18.5210   80.5290   92.0710 C.3    60  ARG60       0.1563
      3  C        -18.3030   81.4520   93.2540 C.2    60  ARG60       0.2260
      4  O        -19.2330   82.0960   93.7500 O.2    60  ARG60      -0.2867
      5  CB       -18.8720   81.3390   90.8280 C.3    60  ARG60       0.0307
      6  CG       -17.6720   82.1030   90.3290 C.3    60  ARG60       0.0489
      7  CD       -17.9220   82.8630   89.0560 C.3    60  ARG60       0.2205
      8  NE       -16.6730   83.4520   88.5960 N.pl3  60  ARG60      -0.0865
      9  CZ       -16.5550   84.2540   87.5480 C.cat  60  ARG60       0.5346
     10  NH1      -17.6230   84.5740   86.8330 N.pl3  60  ARG60       0.1354
     11  NH2      -15.3640   84.7460   87.2300 N.pl3  60  ARG60       0.1354
     12  N        -15.8050   84.4930   95.3000 N.3    62  TYR62      -0.1241
     13  CA       -14.8270   85.5680   95.2100 C.3    62  TYR62       0.1605
     14  C        -14.2850   85.6670   96.6120 C.2    62  TYR62       0.2264
     15  O        -14.9170   86.2540   97.4800 O.2    62  TYR62      -0.2867
     16  CB       -15.4620   86.9040   94.8300 C.3    62  TYR62       0.0534
     17  CG       -15.9540   86.9660   93.4130 C.ar   62  TYR62      -0.0201
     18  CD1      -17.0980   86.2740   93.0210 C.ar   62  TYR62      -0.0009
     19  CD2      -15.2590   87.6980   92.4510 C.ar   62  TYR62      -0.0009
     20  CE1      -17.5390   86.3080   91.7020 C.ar   62  TYR62       0.0417
     21  CE2      -15.6900   87.7410   91.1220 C.ar   62  TYR62       0.0417
     22  CZ       -16.8330   87.0430   90.7560 C.ar   62  TYR62       0.1957
     23  OH       -17.2690   87.0810   89.4510 O.3    62  TYR62      -0.2866
     24  N        -16.9550   90.6110   95.2390 N.3    66  ASP66      -0.1225
     25  CA       -17.3420   91.0520   93.9090 C.3    66  ASP66       0.1805
     26  C        -18.4660   92.0580   94.0680 C.2    66  ASP66       0.2598
     27  O        -19.2140   92.0130   95.0530 O.2    66  ASP66      -0.2718
     28  CB       -17.8900   89.8920   93.0860 C.3    66  ASP66       0.1424
     29  CG       -18.5590   90.3620   91.8050 C.2    66  ASP66       0.3668
     30  OD1      -17.8270   90.7510   90.8610 O.co2  66  ASP66      -0.2456
     31  OD2      -19.8160   90.3670   91.7550 O.co2  66  ASP66      -0.2456
     32  N        -18.5990   92.9450   93.0890 N.am   67  GLY67      -0.1957
     33  CA       -19.6630   93.9320   93.1370 C.3    67  GLY67       0.1869
     34  C        -19.7460   94.6460   94.4710 C.2    67  GLY67       0.2309
     35  O        -18.7170   95.0110   95.0540 O.2    67  GLY67      -0.2863
     36  N        -16.9080   93.8290   96.8720 N.3    70  ARG70      -0.1245
     37  CA       -15.4870   93.8590   96.5340 C.3    70  ARG70       0.1563
     38  C        -14.5830   94.3980   97.6450 C.2    70  ARG70       0.2260
     39  O        -14.8860   95.4030   98.2910 O.2    70  ARG70      -0.2867
     40  CB       -15.2690   94.6680   95.2620 C.3    70  ARG70       0.0307
     41  CG       -13.8610   94.4860   94.6990 C.3    70  ARG70       0.0489
     42  CD       -13.6250   95.3130   93.4640 C.3    70  ARG70       0.2205
     43  NE       -14.6750   95.1420   92.4710 N.pl3  70  ARG70      -0.0865
     44  CZ       -14.7630   94.1160   91.6340 C.cat  70  ARG70       0.5346
     45  NH1      -13.8600   93.1450   91.6610 N.pl3  70  ARG70       0.1354
     46  NH2      -15.7450   94.0850   90.7430 N.pl3  70  ARG70       0.1354
     47  N        -21.5900   82.6650   94.7480 N.3    77  PHE77      -0.1241
     48  CA       -22.6870   82.5550   93.7850 C.3    77  PHE77       0.1605
     49  C        -23.0360   81.1330   93.3440 C.2    77  PHE77       0.2264
     50  O        -22.1990   80.2300   93.3570 O.2    77  PHE77      -0.2867
     51  CB       -22.4050   83.3840   92.5310 C.3    77  PHE77       0.0534
     52  CG       -22.1600   84.8320   92.8030 C.ar   77  PHE77      -0.0203
     53  CD1      -20.9470   85.2600   93.3400 C.ar   77  PHE77      -0.0042
     54  CD2      -23.1440   85.7750   92.5300 C.ar   77  PHE77      -0.0042
     55  CE1      -20.7180   86.6030   93.5950 C.ar   77  PHE77      -0.0003
     56  CE2      -22.9260   87.1240   92.7840 C.ar   77  PHE77      -0.0003
     57  CZ       -21.7120   87.5390   93.3160 C.ar   77  PHE77      -0.0000
     58  N        -30.0100   82.1230  102.2200 N.3   113  ALA113     -0.1231
     59  CA       -30.7930   81.4000  101.2230 C.3   113  ALA113      0.1694
     60  C        -31.5180   82.3290  100.2480 C.2   113  ALA113      0.2592
     61  O        -31.5880   83.5410  100.4630 O.2   113  ALA113     -0.2718
     62  CB       -31.8000   80.4860  101.9210 C.3   113  ALA113      0.0304
     63  N        -32.0430   81.7490   99.1700 N.am  114  PHE114     -0.1962
     64  CA       -32.7760   82.5150   98.1700 C.3   114  PHE114      0.1771
     65  C        -33.5800   81.6350   97.2150 C.2   114  PHE114      0.2619
     66  O        -33.2000   80.4980   96.9300 O.2   114  PHE114     -0.2715
     67  CB       -31.8180   83.4080   97.3700 C.3   114  PHE114      0.0574
     68  CG       -30.9360   82.6680   96.3890 C.ar  114  PHE114     -0.0200
     69  CD1      -31.4600   82.1660   95.1920 C.ar  114  PHE114     -0.0042
     70  CD2      -29.5770   82.5050   96.6430 C.ar  114  PHE114     -0.0042
     71  CE1      -30.6360   81.5180   94.2620 C.ar  114  PHE114     -0.0003
     72  CE2      -28.7510   81.8620   95.7250 C.ar  114  PHE114     -0.0003
     73  CZ       -29.2800   81.3680   94.5310 C.ar  114  PHE114     -0.0000
     74  N        -34.7070   82.1700   96.7500 N.am  115  ARG115     -0.1977
     75  CA       -35.5780   81.4750   95.7980 C.3   115  ARG115      0.1597
     76  C        -35.1640   82.0630   94.4550 C.2   115  ARG115      0.2287
     77  O        -34.8880   83.2560   94.3590 O.2   115  ARG115     -0.2864
     78  CB       -37.0490   81.8320   96.0140 C.3   115  ARG115      0.0334
     79  CG       -37.6360   81.6060   97.3950 C.3   115  ARG115      0.0492
     80  CD       -37.9850   80.1670   97.6720 C.3   115  ARG115      0.2205
     81  NE       -38.7110   80.0400   98.9340 N.pl3 115  ARG115     -0.0865
     82  CZ       -39.1580   78.8870   99.4240 C.cat 115  ARG115      0.5346
     83  NH1      -38.9510   77.7580   98.7590 N.pl3 115  ARG115      0.1354
     84  NH2      -39.8140   78.8590  100.5770 N.pl3 115  ARG115      0.1354
     85  N        -35.1720   83.8490   90.9320 N.3   117  ASP117     -0.1239
     86  CA       -36.0120   84.8770   90.3230 C.3   117  ASP117      0.1674
     87  C        -36.3210   84.4160   88.9010 C.2   117  ASP117      0.2266
     88  O        -35.5480   84.6660   87.9780 O.2   117  ASP117     -0.2867
     89  CB       -35.2820   86.2220   90.2830 C.3   117  ASP117      0.1410
     90  CG       -35.9440   87.2130   89.3330 C.2   117  ASP117      0.3668
     91  OD1      -37.1620   87.4780   89.4800 O.co2 117  ASP117     -0.2456
     92  OD2      -35.2420   87.7270   88.4340 O.co2 117  ASP117     -0.2456
     93  N        -35.0010   85.9230   85.7170 N.3   120  SER120     -0.1202
     94  CA       -33.5640   86.0600   85.4880 C.3   120  SER120      0.2020
     95  C        -33.0410   85.1210   84.4030 C.2   120  SER120      0.2619
     96  O        -33.6300   84.0790   84.1270 O.2   120  SER120     -0.2717
     97  CB       -32.8030   85.8060   86.7920 C.3   120  SER120      0.2103
     98  OG       -31.4110   85.9800   86.6120 O.3   120  SER120     -0.2182
     99  N        -31.9200   85.5020   83.8010 N.am  121  SER121     -0.1937
    100  CA       -31.2990   84.7180   82.7420 C.3   121  SER121      0.2055
    101  C        -30.3530   83.6920   83.3350 C.2   121  SER121      0.2644
    102  O        -29.6310   82.9970   82.6210 O.2   121  SER121     -0.2714
    103  CB       -30.5050   85.6240   81.8080 C.3   121  SER121      0.2130
    104  OG       -29.4000   86.1920   82.4890 O.3   121  SER121     -0.2179
    105  N        -30.3280   83.6190   84.6530 N.am  122  SER122     -0.1935
    106  CA       -29.4640   82.6620   85.3070 C.3   122  SER122      0.2055
    107  C        -30.2480   81.4170   85.6860 C.2   122  SER122      0.2643
    108  O        -29.6650   80.4040   86.0680 O.2   122  SER122     -0.2714
    109  CB       -28.7720   83.3040   86.5230 C.3   122  SER122      0.2130
    110  OG       -29.6400   84.1000   87.2970 O.3   122  SER122     -0.2179
    111  N        -31.5690   81.4830   85.5440 N.am  123  PHE123     -0.1973
    112  CA       -32.4030   80.3370   85.8650 C.3   123  PHE123      0.1639
    113  C        -33.1770   79.8030   84.6700 C.2   123  PHE123      0.2290
    114  O        -34.0920   78.9870   84.8130 O.2   123  PHE123     -0.2864
    115  CB       -33.3420   80.6740   87.0170 C.3   123  PHE123      0.0560
    116  CG       -32.6230   81.1530   88.2270 C.ar  123  PHE123     -0.0200
    117  CD1      -32.5020   82.5170   88.4870 C.ar  123  PHE123     -0.0042
    118  CD2      -31.9720   80.2510   89.0620 C.ar  123  PHE123     -0.0042
    119  CE1      -31.7360   82.9790   89.5630 C.ar  123  PHE123     -0.0003
    120  CE2      -31.2020   80.7050   90.1390 C.ar  123  PHE123     -0.0003
    121  CZ       -31.0860   82.0750   90.3870 C.ar  123  PHE123     -0.0000
    122  N        -25.4570   82.8590   83.9470 N.3   132  ILE132     -0.1231
    123  CA       -24.8550   83.9240   84.7200 C.3   132  ILE132      0.1692
    124  C        -25.0590   83.6160   86.2010 C.2   132  ILE132      0.2592
    125  O        -26.1880   83.4460   86.6480 O.2   132  ILE132     -0.2718
    126  CB       -25.4980   85.2700   84.3500 C.3   132  ILE132      0.0266
    127  CG1      -25.1890   85.5690   82.8830 C.3   132  ILE132      0.0019
    128  CG2      -24.9790   86.3850   85.2540 C.3   132  ILE132      0.0020
    129  CD1      -25.8770   86.8060   82.3430 C.3   132  ILE132      0.0001
    130  N        -23.9650   83.5360   86.9550 N.am  133  ALA133     -0.1966
    131  CA       -24.0430   83.2440   88.3880 C.3   133  ALA133      0.1728
    132  C        -24.8070   84.3080   89.1570 C.2   133  ALA133      0.2617
    133  O        -24.7670   85.4930   88.8240 O.2   133  ALA133     -0.2715
    134  CB       -22.6370   83.0980   88.9840 C.3   133  ALA133      0.0334
    135  N        -25.5170   83.8860   90.1890 N.am  134  SER134     -0.1936
    136  CA       -26.2350   84.8430   91.0020 C.3   134  SER134      0.2055
    137  C        -26.3730   84.2430   92.3900 C.2   134  SER134      0.2643
    138  O        -26.4850   83.0280   92.5440 O.2   134  SER134     -0.2714
    139  CB       -27.6120   85.1700   90.4010 C.3   134  SER134      0.2130
    140  OG       -28.5620   84.1550   90.6280 O.3   134  SER134     -0.2179
    141  N        -26.3370   85.0970   93.4020 N.am  135  GLY135     -0.1954
    142  CA       -26.4510   84.6120   94.7560 C.3   135  GLY135      0.1869
    143  C        -26.2880   85.6930   95.8040 C.2   135  GLY135      0.2309
    144  O        -27.1490   86.5710   95.9410 O.2   135  GLY135     -0.2863
    145  N        -23.5720   88.5300   96.9890 N.3   137  PRO137     -0.2116
    146  CA       -22.3730   89.3650   96.8670 C.3   137  PRO137      0.1372
    147  C        -21.8110   89.6780   98.2440 C.2   137  PRO137      0.2244
    148  O        -20.5990   89.7280   98.4410 O.2   137  PRO137     -0.2868
    149  CB       -22.9080   90.6170   96.1760 C.3   137  PRO137      0.0268
    150  CG       -24.0490   90.0630   95.3300 C.3   137  PRO137      0.0207
    151  CD       -24.7260   89.2290   96.3990 C.3   137  PRO137      0.0892
@<TRIPOS>BOND
     1   103   104    1
     2   103   100    1
     3   129   127    1
     4   102   101    2
     5   100   101    1
     6   100    99    1
     7   127   126    1
     8   101   105   am
     9    99    95   am
    10   122   123    1
    11    96    95    2
    12   126   123    1
    13   126   128    1
    14    95    94    1
    15   105   106    1
    16   113   114    2
    17   113   112    1
    18   123   124    1
    19   106   107    1
    20   106   109    1
    21    94    93    1
    22    94    97    1
    23   111   107   am
    24   111   112    1
    25   107   108    2
    26   112   115    1
    27   124   125    2
    28   124   130   am
    29   109   110    1
    30    98    97    1
    31    10     9    1
    32   130   131    1
    33   115   116    1
    34    11     9    1
    35     9     8    2
    36    88    87    2
    37   116   117   ar
    38   116   118   ar
    39   131   134    1
    40   131   132    1
    41    92    90   ar
    42   117   119   ar
    43     8     7    1
    44   133   132    2
    45    87    86    1
    46     7     6    1
    47   118   120   ar
    48   132   135   am
    49    90    91   ar
    50    90    89    1
    51    23    22    1
    52   119   121   ar
    53   120   121   ar
    54   135   136    1
    55    89    86    1
    56    86    85    1
    57     6     5    1
    58   139   140    1
    59   139   136    1
    60    46    44    1
    61    22    21   ar
    62    22    20   ar
    63     5     2    1
    64    30    29   ar
    65   136   137    1
    66    21    19   ar
    67    44    45    1
    68    44    43    2
    69    20    18   ar
    70    31    29   ar
    71    29    28    1
    72     2     1    1
    73     2     3    1
    74   137   138    2
    75   137   141   am
    76    19    17   ar
    77    43    42    1
    78    54    56   ar
    79    54    52   ar
    80    51    52    1
    81    51    48    1
    82    56    57   ar
    83    52    53   ar
    84    18    17   ar
    85    28    25    1
    86    32    33    1
    87    32    26   am
    88    33    34    1
    89     3     4    2
    90    57    55   ar
    91    53    55   ar
    92    49    50    2
    93    49    48    1
    94   141   142    1
    95    17    16    1
    96    42    41    1
    97    48    47    1
    98    25    26    1
    99    25    24    1
   100    26    27    2
   101    71    73   ar
   102    71    69   ar
   103    77    76    2
   104    76    75    1
   105    34    35    2
   106    73    72   ar
   107    41    40    1
   108   142   143    1
   109    16    13    1
   110    69    68   ar
   111    13    12    1
   112    13    14    1
   113    40    37    1
   114   150   149    1
   115   150   151    1
   116    72    70   ar
   117    75    78    1
   118    75    74    1
   119   143   144    2
   120    78    79    1
   121   149   146    1
   122    68    70   ar
   123    68    67    1
   124   151   145    1
   125    37    36    1
   126    37    38    1
   127    14    15    2
   128    74    65   am
   129   146   145    1
   130   146   147    1
   131    66    65    2
   132    65    64    1
   133    67    64    1
   134    79    80    1
   135    38    39    2
   136    80    81    1
   137    64    63    1
   138   147   148    2
   139    83    82    1
   140    81    82    2
   141    63    60   am
   142    82    84    1
   143    60    61    2
   144    60    59    1
   145    59    62    1
   146    59    58    1
