@<TRIPOS>MOLECULE
tmp/1d0kA01.pdb
 124 119 0 0 0
SMALL
GASTEIGER

@<TRIPOS>ATOM
      1  N         -7.8890   11.6660   19.1220 N.3    70  TYR70      -0.1241
      2  CA        -6.5930   12.1280   18.6190 C.3    70  TYR70       0.1605
      3  C         -5.5700   10.9900   18.6970 C.2    70  TYR70       0.2264
      4  O         -4.8580   10.6990   17.7330 O.2    70  TYR70      -0.2867
      5  CB        -6.1000   13.3200   19.4510 C.3    70  TYR70       0.0534
      6  CG        -4.8450   13.9700   18.9090 C.ar   70  TYR70      -0.0201
      7  CD1       -3.5810   13.4460   19.1910 C.ar   70  TYR70      -0.0009
      8  CD2       -4.9210   15.0990   18.0960 C.ar   70  TYR70      -0.0009
      9  CE1       -2.4240   14.0330   18.6710 C.ar   70  TYR70       0.0417
     10  CE2       -3.7690   15.6930   17.5730 C.ar   70  TYR70       0.0417
     11  CZ        -2.5270   15.1540   17.8620 C.ar   70  TYR70       0.1957
     12  OH        -1.3950   15.7300   17.3250 O.3    70  TYR70      -0.2866
     13  N         -5.4050    8.0620   16.1440 N.3    73  LYS73      -0.1231
     14  CA        -4.9520    8.3950   14.7960 C.3    73  LYS73       0.1693
     15  C         -3.4860    7.9970   14.6750 C.2    73  LYS73       0.2592
     16  O         -2.9930    7.7240   13.5810 O.2    73  LYS73      -0.2718
     17  CB        -5.0590    9.8970   14.5320 C.3    73  LYS73       0.0285
     18  CG        -6.4570   10.3810   14.2430 C.3    73  LYS73       0.0035
     19  CD        -6.4390   11.8390   13.8530 C.3    73  LYS73       0.0206
     20  CE        -7.7810   12.2950   13.3040 C.3    73  LYS73       0.1093
     21  NZ        -8.8980   12.0420   14.2550 N.3    73  LYS73      -0.1314
     22  N         -2.8010    7.9460   15.8160 N.am   74  PHE74      -0.1976
     23  CA        -1.3800    7.6270   15.8370 C.3    74  PHE74       0.1639
     24  C         -1.0010    6.2990   16.4680 C.2    74  PHE74       0.2290
     25  O         -0.0850    5.6290   15.9940 O.2    74  PHE74      -0.2864
     26  CB        -0.6120    8.7810   16.4960 C.3    74  PHE74       0.0560
     27  CG        -0.8060   10.1060   15.7980 C.ar   74  PHE74      -0.0200
     28  CD1       -0.1580   10.3730   14.5960 C.ar   74  PHE74      -0.0042
     29  CD2       -1.6650   11.0680   16.3230 C.ar   74  PHE74      -0.0042
     30  CE1       -0.3660   11.5810   13.9210 C.ar   74  PHE74      -0.0003
     31  CE2       -1.8810   12.2770   15.6600 C.ar   74  PHE74      -0.0003
     32  CZ        -1.2310   12.5350   14.4560 C.ar   74  PHE74      -0.0000
     33  N          7.4500    9.4170   13.8780 N.3   113  GLY113     -0.1210
     34  CA         6.2380    8.6560   13.6350 C.3   113  GLY113      0.1956
     35  C          5.0250    9.5480   13.4510 C.2   113  GLY113      0.2612
     36  O          4.2800    9.4010   12.4770 O.2   113  GLY113     -0.2717
     37  N          4.8300   10.4800   14.3800 N.am  114  VAL114     -0.1965
     38  CA         3.7020   11.4070   14.3160 C.3   114  VAL114      0.1727
     39  C          3.8580   12.3680   13.1300 C.2   114  VAL114      0.2616
     40  O          2.8880   12.6650   12.4400 O.2   114  VAL114     -0.2715
     41  CB         3.5410   12.2040   15.6530 C.3   114  VAL114      0.0290
     42  CG1        2.5530   13.3540   15.4890 C.3   114  VAL114      0.0023
     43  CG2        3.0390   11.2700   16.7700 C.3   114  VAL114      0.0023
     44  N          5.0890   12.7950   12.8580 N.am  115  GLU115     -0.1963
     45  CA         5.3500   13.7290   11.7590 C.3   115  GLU115      0.1733
     46  C          5.1650   13.1960   10.3450 C.2   115  GLU115      0.2617
     47  O          4.5160   13.8380    9.5230 O.2   115  GLU115     -0.2715
     48  CB         6.7630   14.3220   11.8630 C.3   115  GLU115      0.0429
     49  CG         6.9700   15.2780   13.0270 C.3   115  GLU115      0.1163
     50  CD         6.1280   16.5340   12.9270 C.2   115  GLU115      0.3649
     51  OE1        5.7010   16.9080   11.8190 O.co2 115  GLU115     -0.2457
     52  OE2        5.9000   17.1660   13.9680 O.co2 115  GLU115     -0.2457
     53  N          5.7350   12.0320   10.0540 N.am  116  THR116     -0.1937
     54  CA         5.6610   11.4870    8.7030 C.3   116  THR116      0.2028
     55  C          5.4360    9.9850    8.6250 C.2   116  THR116      0.2642
     56  O          5.6060    9.4030    7.5570 O.2   116  THR116     -0.2714
     57  CB         6.9810   11.7670    7.9440 C.3   116  THR116      0.1808
     58  OG1        8.0680   11.1040    8.6100 O.3   116  THR116     -0.2208
     59  CG2        7.2740   13.2620    7.8840 C.3   116  THR116      0.0379
     60  N          5.0640    9.3550    9.7360 N.am  117  ARG117     -0.1977
     61  CA         4.8800    7.9030    9.7620 C.3   117  ARG117      0.1597
     62  C          6.1590    7.2400    9.2450 C.2   117  ARG117      0.2287
     63  O          6.1340    6.3470    8.3990 O.2   117  ARG117     -0.2864
     64  CB         3.6610    7.4780    8.9440 C.3   117  ARG117      0.0334
     65  CG         2.3300    7.7880    9.6260 C.3   117  ARG117      0.0492
     66  CD         1.1520    7.3610    8.7600 C.3   117  ARG117      0.2205
     67  NE         1.2790    5.9690    8.3390 N.pl3 117  ARG117     -0.0865
     68  CZ         0.9080    5.5060    7.1480 C.cat 117  ARG117      0.5346
     69  NH1        0.3600    6.3190    6.2510 N.pl3 117  ARG117      0.1354
     70  NH2        1.0730    4.2210    6.8580 N.pl3 117  ARG117      0.1354
     71  N          4.7430    9.6180    4.8350 N.3   121  VAL121     -0.1231
     72  CA         3.9480   10.8010    4.5200 C.3   121  VAL121      0.1692
     73  C          4.7800   12.0500    4.7970 C.2   121  VAL121      0.2592
     74  O          4.6790   12.6540    5.8650 O.2   121  VAL121     -0.2718
     75  CB         2.6450   10.8500    5.3680 C.3   121  VAL121      0.0266
     76  CG1        1.7670   12.0110    4.9280 C.3   121  VAL121      0.0020
     77  CG2        1.8780    9.5350    5.2450 C.3   121  VAL121      0.0020
     78  N          5.5930   12.4420    3.8220 N.am  122  MET122     -0.1965
     79  CA         6.4450   13.6090    3.9870 C.3   122  MET122      0.1736
     80  C          5.9710   14.8950    3.3160 C.2   122  MET122      0.2617
     81  O          6.6360   15.9260    3.4100 O.2   122  MET122     -0.2715
     82  CB         7.8710   13.2680    3.5660 C.3   122  MET122      0.0427
     83  CG         8.4010   12.0800    4.3330 C.3   122  MET122      0.0599
     84  SD        10.1480   12.0120    4.4020 S.3   122  MET122     -0.1393
     85  CE        10.5180   11.0920    2.9090 C.3   122  MET122      0.0692
     86  N          4.8040   14.8480    2.6830 N.am  123  GLY123     -0.1955
     87  CA         4.2820   16.0340    2.0220 C.3   123  GLY123      0.1869
     88  C          4.4180   15.9400    0.5150 C.2   123  GLY123      0.2309
     89  O          5.3670   15.3500    0.0090 O.2   123  GLY123     -0.2863
     90  N          5.3140   19.8290    3.3940 N.3   169  SER169     -0.1217
     91  CA         4.0010   20.2590    3.8550 C.3   169  SER169      0.1889
     92  C          3.5590   21.6010    3.2870 C.2   169  SER169      0.2288
     93  O          4.3400   22.3120    2.6360 O.2   169  SER169     -0.2866
     94  CB         3.9870   20.3270    5.3810 C.3   169  SER169      0.2089
     95  OG         4.6430   21.5000    5.8200 O.3   169  SER169     -0.2183
     96  N         10.0370   16.7550    9.3780 N.3   178  GLN178     -0.1245
     97  CA         9.2730   17.9340    8.9810 C.3   178  GLN178      0.1566
     98  C          9.8840   19.2120    9.5580 C.2   178  GLN178      0.2260
     99  O          9.2280   19.9680   10.2710 O.2   178  GLN178     -0.2867
    100  CB         7.8070   17.8010    9.4010 C.3   178  GLN178      0.0367
    101  CG         7.0370   16.7280    8.6480 C.3   178  GLN178      0.0905
    102  CD         6.7760   17.0990    7.2000 C.2   178  GLN178      0.2608
    103  OE1        5.8530   17.8530    6.9030 O.2   178  GLN178     -0.2717
    104  NE2        7.5820   16.5610    6.2890 N.am  178  GLN178     -0.0878
    105  N          5.9120   21.1690   18.3800 N.3   292  ASN292     -0.1240
    106  CA         4.5620   21.4790   17.9140 C.3   292  ASN292      0.1653
    107  C          3.7780   21.8630   19.1700 C.2   292  ASN292      0.2266
    108  O          3.5990   21.0400   20.0710 O.2   292  ASN292     -0.2867
    109  CB         3.9410   20.2570   17.2410 C.3   292  ASN292      0.1155
    110  CG         2.6180   20.5620   16.5800 C.2   292  ASN292      0.2627
    111  OD1        1.6460   20.9240   17.2400 O.2   292  ASN292     -0.2716
    112  ND2        2.5670   20.3940   15.2670 N.am  292  ASN292     -0.0877
    113  N         -0.4570   16.6980   20.8020 N.3   297  TYR297     -0.1241
    114  CA         0.6810   16.3270   19.9800 C.3   297  TYR297      0.1605
    115  C          1.7790   15.7110   20.8450 C.2   297  TYR297      0.2264
    116  O          2.2430   14.5990   20.5780 O.2   297  TYR297     -0.2867
    117  CB         1.2370   17.5550   19.2480 C.3   297  TYR297      0.0534
    118  CG         2.5340   17.3010   18.5150 C.ar  297  TYR297     -0.0201
    119  CD1        3.7630   17.4400   19.1650 C.ar  297  TYR297     -0.0009
    120  CD2        2.5360   16.8850   17.1830 C.ar  297  TYR297     -0.0009
    121  CE1        4.9600   17.1650   18.5080 C.ar  297  TYR297      0.0417
    122  CE2        3.7280   16.6100   16.5170 C.ar  297  TYR297      0.0417
    123  CZ         4.9340   16.7470   17.1860 C.ar  297  TYR297      0.1957
    124  OH         6.1090   16.4380   16.5520 O.3   297  TYR297     -0.2866
@<TRIPOS>BOND
     1    89    88    2
     2    88    87    1
     3    87    86    1
     4    93    92    2
     5    86    80   am
     6    85    84    1
     7    92    91    1
     8    80    81    2
     9    80    79    1
    10    90    91    1
    11    82    79    1
    12    82    83    1
    13    78    79    1
    14    78    73   am
    15    91    94    1
    16    83    84    1
    17    72    73    1
    18    72    71    1
    19    72    75    1
    20    73    74    2
    21    76    75    1
    22    77    75    1
    23    94    95    1
    24    69    68    1
    25   104   102   am
    26    70    68    1
    27   103   102    2
    28    68    67    2
    29   102   101    1
    30    56    55    2
    31    59    57    1
    32    57    58    1
    33    57    54    1
    34    67    66    1
    35    63    62    2
    36    55    54    1
    37    55    60   am
    38   101   100    1
    39    54    53    1
    40    66    65    1
    41    64    65    1
    42    64    61    1
    43    97    96    1
    44    97   100    1
    45    97    98    1
    46    62    61    1
    47    47    46    2
    48    98    99    2
    49    60    61    1
    50    53    46   am
    51    46    45    1
    52    45    48    1
    53    45    44    1
    54    51    50   ar
    55    48    49    1
    56    40    39    2
    57    36    35    2
    58    44    39   am
    59    50    49    1
    60    50    52   ar
    61    39    38    1
    62    20    19    1
    63    20    21    1
    64    35    34    1
    65    35    37   am
    66    16    15    2
    67    34    33    1
    68    19    18    1
    69    30    32   ar
    70    30    28   ar
    71    18    17    1
    72    38    37    1
    73    38    41    1
    74    32    31   ar
    75    17    14    1
    76    28    27   ar
    77    15    14    1
    78    15    22   am
    79    14    13    1
    80   112   110   am
    81    42    41    1
    82    41    43    1
    83    31    29   ar
    84    27    29   ar
    85    27    26    1
    86    22    23    1
    87    23    24    1
    88    23    26    1
    89    25    24    2
    90   122   120   ar
    91   122   123   ar
    92   124   123    1
    93   110   111    2
    94   110   109    1
    95   120   118   ar
    96   123   121   ar
    97   109   106    1
    98    12    11    1
    99    10    11   ar
   100    10     8   ar
   101     4     3    2
   102    11     9   ar
   103   106   105    1
   104   106   107    1
   105     8     6   ar
   106   121   119   ar
   107   118   119   ar
   108   118   117    1
   109     2     3    1
   110     2     1    1
   111     2     5    1
   112     9     7   ar
   113     6     7   ar
   114     6     5    1
   115   107   108    2
   116   117   114    1
   117   114   113    1
   118   114   115    1
   119   116   115    2
