@<TRIPOS>MOLECULE
tmp/1d0kA00.pdb
 124 118 0 0 0
SMALL
GASTEIGER

@<TRIPOS>ATOM
      1  N         -3.8430   27.7180    6.1420 N.3    56  MET56      -0.1245
      2  CA        -3.1940   28.6080    7.0980 C.3    56  MET56       0.1570
      3  C         -4.2410   29.4650    7.8330 C.2    56  MET56       0.2261
      4  O         -4.0370   29.8460    8.9870 O.2    56  MET56      -0.2867
      5  CB        -2.1480   29.4790    6.3930 C.3    56  MET56       0.0387
      6  CG        -1.0840   30.0710    7.3220 C.3    56  MET56       0.0595
      7  SD        -0.1810   28.8440    8.3150 S.3    56  MET56      -0.1393
      8  CE         0.8180   28.0380    7.0700 C.3    56  MET56       0.0692
      9  N         -6.2920   27.3660   10.4870 N.3    59  GLN59      -0.1245
     10  CA        -5.5200   27.0740   11.6900 C.3    59  GLN59       0.1566
     11  C         -5.0920   28.3550   12.4000 C.2    59  GLN59       0.2260
     12  O         -4.2490   28.3220   13.3010 O.2    59  GLN59      -0.2867
     13  CB        -4.2800   26.2470   11.3420 C.3    59  GLN59       0.0367
     14  CG        -4.5740   24.9040   10.6860 C.3    59  GLN59       0.0905
     15  CD        -3.3160   24.1050   10.3890 C.2    59  GLN59       0.2608
     16  OE1       -3.3530   22.8750   10.3140 O.2    59  GLN59      -0.2717
     17  NE2       -2.1960   24.8020   10.2100 N.am   59  GLN59      -0.0878
     18  N          5.0890   12.7950   12.8580 N.3   115  GLU115     -0.1245
     19  CA         5.3500   13.7290   11.7590 C.3   115  GLU115      0.1567
     20  C          5.1650   13.1960   10.3450 C.2   115  GLU115      0.2260
     21  O          4.5160   13.8380    9.5230 O.2   115  GLU115     -0.2867
     22  CB         6.7630   14.3220   11.8630 C.3   115  GLU115      0.0388
     23  CG         6.9700   15.2780   13.0270 C.3   115  GLU115      0.1160
     24  CD         6.1280   16.5340   12.9270 C.2   115  GLU115      0.3649
     25  OE1        5.7010   16.9080   11.8190 O.co2 115  GLU115     -0.2457
     26  OE2        5.9000   17.1660   13.9680 O.co2 115  GLU115     -0.2457
     27  N          1.2890   36.5460    8.0640 N.3   141  ARG141     -0.1245
     28  CA         2.5650   35.9170    8.4100 C.3   141  ARG141      0.1563
     29  C          3.5970   36.0330    7.2850 C.2   141  ARG141      0.2260
     30  O          4.5070   35.2080    7.1630 O.2   141  ARG141     -0.2867
     31  CB         2.3470   34.4500    8.7870 C.3   141  ARG141      0.0307
     32  CG         1.2590   34.2450    9.8260 C.3   141  ARG141      0.0489
     33  CD         1.2150   32.8120   10.3000 C.3   141  ARG141      0.2205
     34  NE         2.4560   32.4330   10.9680 N.pl3 141  ARG141     -0.0865
     35  CZ         2.8420   31.1770   11.1630 C.cat 141  ARG141      0.5346
     36  NH1        2.0800   30.1740   10.7420 N.pl3 141  ARG141      0.1354
     37  NH2        3.9860   30.9210   11.7810 N.pl3 141  ARG141      0.1354
     38  N          7.3550   36.2020    8.5810 N.3   144  TYR144     -0.1227
     39  CA         7.8680   34.9200    9.0590 C.3   144  TYR144      0.1736
     40  C          8.2130   34.0130    7.8790 C.2   144  TYR144      0.2595
     41  O          9.2970   33.4360    7.8250 O.2   144  TYR144     -0.2718
     42  CB         6.8370   34.2200    9.9590 C.3   144  TYR144      0.0548
     43  CG         7.2170   32.7940   10.3070 C.ar  144  TYR144     -0.0200
     44  CD1        8.2760   32.5250   11.1740 C.ar  144  TYR144     -0.0009
     45  CD2        6.5520   31.7150    9.7280 C.ar  144  TYR144     -0.0009
     46  CE1        8.6660   31.2150   11.4500 C.ar  144  TYR144      0.0417
     47  CE2        6.9340   30.4040    9.9970 C.ar  144  TYR144      0.0417
     48  CZ         7.9910   30.1610   10.8550 C.ar  144  TYR144      0.1957
     49  OH         8.3920   28.8630   11.0940 O.3   144  TYR144     -0.2866
     50  N          7.2950   33.8940    6.9280 N.am  145  PHE145     -0.1976
     51  CA         7.5420   33.0350    5.7800 C.3   145  PHE145      0.1639
     52  C          8.5610   33.5520    4.7760 C.2   145  PHE145      0.2290
     53  O          9.2150   32.7600    4.1020 O.2   145  PHE145     -0.2864
     54  CB         6.2340   32.5990    5.1290 C.3   145  PHE145      0.0560
     55  CG         5.4700   31.6170    5.9660 C.ar  145  PHE145     -0.0200
     56  CD1        5.9390   30.3150    6.1230 C.ar  145  PHE145     -0.0042
     57  CD2        4.3220   32.0070    6.6560 C.ar  145  PHE145     -0.0042
     58  CE1        5.2830   29.4160    6.9590 C.ar  145  PHE145     -0.0003
     59  CE2        3.6580   31.1180    7.4930 C.ar  145  PHE145     -0.0003
     60  CZ         4.1400   29.8160    7.6480 C.ar  145  PHE145     -0.0000
     61  N          5.3140   19.8290    3.3940 N.3   169  SER169     -0.1202
     62  CA         4.0010   20.2590    3.8550 C.3   169  SER169      0.2020
     63  C          3.5590   21.6010    3.2870 C.2   169  SER169      0.2619
     64  O          4.3400   22.3120    2.6360 O.2   169  SER169     -0.2717
     65  CB         3.9870   20.3270    5.3810 C.3   169  SER169      0.2103
     66  OG         4.6430   21.5000    5.8200 O.3   169  SER169     -0.2182
     67  N          2.2960   21.9330    3.5520 N.am  170  PHE170     -0.1961
     68  CA         1.6820   23.1880    3.1210 C.3   170  PHE170      0.1771
     69  C          2.3440   24.4010    3.7530 C.2   170  PHE170      0.2619
     70  O          2.1300   25.5240    3.3050 O.2   170  PHE170     -0.2715
     71  CB         0.1760   23.1760    3.3970 C.3   170  PHE170      0.0574
     72  CG        -0.6010   22.2790    2.4680 C.ar  170  PHE170     -0.0200
     73  CD1       -0.9210   20.9760    2.8380 C.ar  170  PHE170     -0.0042
     74  CD2       -1.0160   22.7410    1.2230 C.ar  170  PHE170     -0.0042
     75  CE1       -1.6420   20.1470    1.9830 C.ar  170  PHE170     -0.0003
     76  CE2       -1.7370   21.9210    0.3600 C.ar  170  PHE170     -0.0003
     77  CZ        -2.0510   20.6220    0.7420 C.ar  170  PHE170     -0.0000
     78  N          3.1110   24.1770    4.8170 N.am  171  ALA171     -0.1977
     79  CA         3.8160   25.2540    5.5060 C.3   171  ALA171      0.1597
     80  C          5.3050   25.3050    5.1430 C.2   171  ALA171      0.2287
     81  O          6.0250   26.1870    5.6090 O.2   171  ALA171     -0.2864
     82  CB         3.6460   25.1160    7.0180 C.3   171  ALA171      0.0319
     83  N          7.4490   22.5710    5.5550 N.3   173  ALA173     -0.1245
     84  CA         8.2030   21.6530    6.4210 C.3   173  ALA173      0.1562
     85  C          8.7560   20.5050    5.5770 C.2   173  ALA173      0.2260
     86  O          8.0730   20.0000    4.6790 O.2   173  ALA173     -0.2867
     87  CB         7.3200   21.1350    7.5550 C.3   173  ALA173      0.0290
     88  N         10.0370   16.7550    9.3780 N.3   178  GLN178     -0.1245
     89  CA         9.2730   17.9340    8.9810 C.3   178  GLN178      0.1566
     90  C          9.8840   19.2120    9.5580 C.2   178  GLN178      0.2260
     91  O          9.2280   19.9680   10.2710 O.2   178  GLN178     -0.2867
     92  CB         7.8070   17.8010    9.4010 C.3   178  GLN178      0.0367
     93  CG         7.0370   16.7280    8.6480 C.3   178  GLN178      0.0905
     94  CD         6.7760   17.0990    7.2000 C.2   178  GLN178      0.2608
     95  OE1        5.8530   17.8530    6.9030 O.2   178  GLN178     -0.2717
     96  NE2        7.5820   16.5610    6.2890 N.am  178  GLN178     -0.0878
     97  N         11.3390   22.9310    9.4130 N.3   180  MET180     -0.1245
     98  CA        11.1180   24.1570    8.6520 C.3   180  MET180      0.1570
     99  C         12.5250   24.6200    8.2420 C.2   180  MET180      0.2261
    100  O         13.5180   24.1930    8.8360 O.2   180  MET180     -0.2867
    101  CB        10.4930   25.2320    9.5470 C.3   180  MET180      0.0387
    102  CG         9.0300   25.0110    9.8600 C.3   180  MET180      0.0595
    103  SD         8.0330   25.0650    8.3670 S.3   180  MET180     -0.1393
    104  CE         8.0560   26.8170    7.9780 C.3   180  MET180      0.0692
    105  N          8.3160   21.4520   19.6450 N.3   291  TYR291     -0.1227
    106  CA         8.3220   20.9250   18.2790 C.3   291  TYR291      0.1736
    107  C          6.9900   21.2630   17.6080 C.2   291  TYR291      0.2595
    108  O          6.9440   21.5800   16.4230 O.2   291  TYR291     -0.2718
    109  CB         8.5180   19.4090   18.2930 C.3   291  TYR291      0.0548
    110  CG         9.2580   18.8790   17.0860 C.ar  291  TYR291     -0.0200
    111  CD1        8.5810   18.5220   15.9190 C.ar  291  TYR291     -0.0009
    112  CD2       10.6390   18.7160   17.1240 C.ar  291  TYR291     -0.0009
    113  CE1        9.2750   18.0100   14.8180 C.ar  291  TYR291      0.0417
    114  CE2       11.3370   18.2110   16.0400 C.ar  291  TYR291      0.0417
    115  CZ        10.6530   17.8570   14.8930 C.ar  291  TYR291      0.1957
    116  OH        11.3620   17.3340   13.8410 O.3   291  TYR291     -0.2866
    117  N          5.9120   21.1690   18.3800 N.am  292  ASN292     -0.1974
    118  CA         4.5620   21.4790   17.9140 C.3   292  ASN292      0.1688
    119  C          3.7780   21.8630   19.1700 C.2   292  ASN292      0.2292
    120  O          3.5990   21.0400   20.0710 O.2   292  ASN292     -0.2864
    121  CB         3.9410   20.2570   17.2410 C.3   292  ASN292      0.1181
    122  CG         2.6180   20.5620   16.5800 C.2   292  ASN292      0.2629
    123  OD1        1.6460   20.9240   17.2400 O.2   292  ASN292     -0.2716
    124  ND2        2.5670   20.3940   15.2670 N.am  292  ASN292     -0.0877
@<TRIPOS>BOND
     1    76    77   ar
     2    76    74   ar
     3    77    75   ar
     4    74    72   ar
     5    75    73   ar
     6    72    73   ar
     7    72    71    1
     8    64    63    2
     9    68    71    1
    10    68    67    1
    11    68    69    1
    12    63    67   am
    13    63    62    1
    14    70    69    2
    15    61    62    1
    16    69    78   am
    17    62    65    1
    18    53    52    2
    19    86    85    2
    20    52    51    1
    21    78    79    1
    22    54    51    1
    23    54    55    1
    24    80    79    1
    25    80    81    2
    26    65    66    1
    27    79    82    1
    28    83    84    1
    29    85    84    1
    30    51    50    1
    31    55    56   ar
    32    55    57   ar
    33    56    58   ar
    34     1     2    1
    35    96    94   am
    36     5     2    1
    37     5     6    1
    38    84    87    1
    39    57    59   ar
    40    95    94    2
    41    50    40   am
    42    58    60   ar
    43     8     7    1
    44     2     3    1
    45    30    29    2
    46    94    93    1
    47    29    28    1
    48     6     7    1
    49    59    60   ar
    50    41    40    2
    51     3     4    2
    52    40    39    1
    53   104   103    1
    54    27    28    1
    55    99    98    1
    56    99   100    2
    57   103   102    1
    58    28    31    1
    59    38    39    1
    60    93    92    1
    61    98    97    1
    62    98   101    1
    63    31    32    1
    64    89    88    1
    65    89    92    1
    66    89    90    1
    67    39    42    1
    68    21    20    2
    69   101   102    1
    70    90    91    2
    71    45    47   ar
    72    45    43   ar
    73    32    33    1
    74    42    43    1
    75    47    48   ar
    76    17    15   am
    77    33    34    1
    78    43    44   ar
    79    16    15    2
    80    20    19    1
    81    15    14    1
    82     9    10    1
    83    14    13    1
    84    36    35    1
    85    48    49    1
    86    48    46   ar
    87    34    35    2
    88    35    37    1
    89    44    46   ar
    90    13    10    1
    91    10    11    1
    92    19    22    1
    93    19    18    1
    94    25    24   ar
    95    22    23    1
    96    11    12    2
    97    24    23    1
    98    24    26   ar
    99   116   115    1
   100   113   115   ar
   101   113   111   ar
   102   115   114   ar
   103   124   122   am
   104   111   110   ar
   105   114   112   ar
   106   108   107    2
   107   122   123    2
   108   122   121    1
   109   110   112   ar
   110   110   109    1
   111   121   118    1
   112   107   106    1
   113   107   117   am
   114   118   117    1
   115   118   119    1
   116   106   109    1
   117   106   105    1
   118   119   120    2
