@<TRIPOS>MOLECULE
tmp/1d0lA00.pdb
 200 196 0 0 0
SMALL
GASTEIGER

@<TRIPOS>ATOM
      1  N         -5.5470   27.0610    4.4050 N.3    55  LEU55      -0.1231
      2  CA        -5.1880   26.2230    5.5450 C.3    55  LEU55       0.1693
      3  C         -4.5430   27.0460    6.6580 C.2    55  LEU55       0.2591
      4  O         -4.8040   26.8180    7.8410 O.2    55  LEU55      -0.2718
      5  CB        -4.2540   25.0920    5.1100 C.3    55  LEU55       0.0284
      6  CG        -4.8640   24.0540    4.1630 C.3    55  LEU55       0.0019
      7  CD1       -3.8170   23.0160    3.7950 C.3    55  LEU55       0.0001
      8  CD2       -6.0740   23.3900    4.8140 C.3    55  LEU55       0.0001
      9  N         -3.7130   28.0110    6.2730 N.am   56  MET56      -0.1979
     10  CA        -3.0320   28.8670    7.2350 C.3    56  MET56       0.1605
     11  C         -4.0530   29.7370    7.9850 C.2    56  MET56       0.2287
     12  O         -3.8150   30.1470    9.1220 O.2    56  MET56      -0.2864
     13  CB        -1.9750   29.7130    6.5190 C.3    56  MET56       0.0413
     14  CG        -0.7900   30.1300    7.3860 C.3    56  MET56       0.0598
     15  SD         0.1030   28.7730    8.2000 S.3    56  MET56      -0.1393
     16  CE         0.5430   27.7250    6.8120 C.3    56  MET56       0.0692
     17  N         -6.0420   27.4000   10.5300 N.3    59  GLN59      -0.1245
     18  CA        -5.2100   27.0720   11.6830 C.3    59  GLN59       0.1566
     19  C         -4.8110   28.3230   12.4650 C.2    59  GLN59       0.2260
     20  O         -4.0060   28.2540   13.3980 O.2    59  GLN59      -0.2867
     21  CB        -3.9610   26.3030   11.2390 C.3    59  GLN59       0.0367
     22  CG        -4.2620   24.9790   10.5410 C.3    59  GLN59       0.0905
     23  CD        -3.0130   24.1700   10.2140 C.2    59  GLN59       0.2608
     24  OE1       -3.0720   22.9440   10.1050 O.2    59  GLN59      -0.2717
     25  NE2       -1.8830   24.8520   10.0430 N.am   59  GLN59      -0.0878
     26  N          5.3370   12.7120   12.4870 N.3   115  GLU115     -0.1245
     27  CA         5.6090   13.6230   11.3850 C.3   115  GLU115      0.1567
     28  C          5.4110   13.0650    9.9890 C.2   115  GLU115      0.2260
     29  O          4.7070   13.6700    9.1780 O.2   115  GLU115     -0.2867
     30  CB         7.0240   14.2090   11.4890 C.3   115  GLU115      0.0388
     31  CG         7.2330   15.1530   12.6690 C.3   115  GLU115      0.1160
     32  CD         6.3710   16.3970   12.6180 C.2   115  GLU115      0.3649
     33  OE1        5.8260   16.7340   11.5480 O.co2 115  GLU115     -0.2457
     34  OE2        6.2460   17.0580   13.6620 O.co2 115  GLU115     -0.2457
     35  N          1.8300   36.3560    8.4700 N.3   141  ARG141     -0.1245
     36  CA         3.0960   35.7050    8.7910 C.3   141  ARG141      0.1563
     37  C          4.1130   35.8470    7.6560 C.2   141  ARG141      0.2260
     38  O          5.0440   35.0480    7.5430 O.2   141  ARG141     -0.2867
     39  CB         2.8700   34.2250    9.1240 C.3   141  ARG141      0.0307
     40  CG         1.9610   33.9880   10.3220 C.3   141  ARG141      0.0489
     41  CD         1.8370   32.5070   10.6420 C.3   141  ARG141      0.2205
     42  NE         3.0250   31.9620   11.3030 N.pl3 141  ARG141     -0.0865
     43  CZ         3.2760   30.6590   11.4300 C.cat 141  ARG141      0.5346
     44  NH1        2.4420   29.7650   10.9110 N.pl3 141  ARG141      0.1354
     45  NH2        4.3740   30.2470   12.0540 N.pl3 141  ARG141      0.1354
     46  N          7.9100   36.0690    8.7910 N.3   144  TYR144     -0.1227
     47  CA         8.4180   34.7800    9.2450 C.3   144  TYR144      0.1736
     48  C          8.7240   33.8990    8.0320 C.2   144  TYR144      0.2595
     49  O          9.8360   33.3950    7.8810 O.2   144  TYR144     -0.2718
     50  CB         7.3860   34.0780   10.1440 C.3   144  TYR144      0.0548
     51  CG         7.7260   32.6330   10.4560 C.ar  144  TYR144     -0.0200
     52  CD1        8.7800   32.3140   11.3140 C.ar  144  TYR144     -0.0009
     53  CD2        7.0330   31.5830    9.8490 C.ar  144  TYR144     -0.0009
     54  CE1        9.1420   30.9900   11.5550 C.ar  144  TYR144      0.0417
     55  CE2        7.3880   30.2490   10.0830 C.ar  144  TYR144      0.0417
     56  CZ         8.4450   29.9610   10.9340 C.ar  144  TYR144      0.1957
     57  OH         8.8320   28.6540   11.1520 O.3   144  TYR144     -0.2866
     58  N          7.7480   33.7580    7.1430 N.am  145  PHE145     -0.1976
     59  CA         7.9370   32.9110    5.9760 C.3   145  PHE145      0.1639
     60  C          8.9560   33.4150    4.9720 C.2   145  PHE145      0.2290
     61  O          9.5780   32.6180    4.2800 O.2   145  PHE145     -0.2864
     62  CB         6.5920   32.5560    5.3380 C.3   145  PHE145      0.0560
     63  CG         5.8040   31.5540    6.1440 C.ar  145  PHE145     -0.0200
     64  CD1        6.2230   30.2220    6.2190 C.ar  145  PHE145     -0.0042
     65  CD2        4.6730   31.9420    6.8600 C.ar  145  PHE145     -0.0042
     66  CE1        5.5280   29.2910    6.9940 C.ar  145  PHE145     -0.0003
     67  CE2        3.9670   31.0210    7.6380 C.ar  145  PHE145     -0.0003
     68  CZ         4.3990   29.6900    7.7060 C.ar  145  PHE145     -0.0000
     69  N          5.6400   19.8980    3.2780 N.3   169  SER169     -0.1202
     70  CA         4.3290   20.3210    3.7490 C.3   169  SER169      0.2020
     71  C          3.8360   21.6520    3.1890 C.2   169  SER169      0.2619
     72  O          4.5710   22.3700    2.4950 O.2   169  SER169     -0.2717
     73  CB         4.3300   20.3790    5.2800 C.3   169  SER169      0.2103
     74  OG         4.8920   21.6010    5.7200 O.3   169  SER169     -0.2182
     75  N          2.5820   21.9810    3.5150 N.am  170  PHE170     -0.1961
     76  CA         1.9680   23.2300    3.0770 C.3   170  PHE170      0.1771
     77  C          2.6610   24.4370    3.7020 C.2   170  PHE170      0.2619
     78  O          2.4500   25.5680    3.2650 O.2   170  PHE170     -0.2715
     79  CB         0.4700   23.2400    3.4200 C.3   170  PHE170      0.0574
     80  CG        -0.3360   22.2170    2.6580 C.ar  170  PHE170     -0.0200
     81  CD1       -0.8800   21.1100    3.3080 C.ar  170  PHE170     -0.0042
     82  CD2       -0.5620   22.3680    1.2890 C.ar  170  PHE170     -0.0042
     83  CE1       -1.6390   20.1680    2.6090 C.ar  170  PHE170     -0.0003
     84  CE2       -1.3200   21.4320    0.5810 C.ar  170  PHE170     -0.0003
     85  CZ        -1.8580   20.3310    1.2420 C.ar  170  PHE170     -0.0000
     86  N          3.4480   24.2040    4.7540 N.am  171  ALA171     -0.1977
     87  CA         4.1700   25.2890    5.4160 C.3   171  ALA171      0.1597
     88  C          5.6510   25.2930    5.0440 C.2   171  ALA171      0.2287
     89  O          6.4170   26.0870    5.5780 O.2   171  ALA171     -0.2864
     90  CB         4.0200   25.1860    6.9360 C.3   171  ALA171      0.0319
     91  N          7.7600   22.5510    5.3950 N.3   173  ALA173     -0.1245
     92  CA         8.5080   21.6290    6.2650 C.3   173  ALA173      0.1562
     93  C          9.0490   20.4820    5.4150 C.2   173  ALA173      0.2260
     94  O          8.3580   19.9900    4.5190 O.2   173  ALA173     -0.2867
     95  CB         7.6190   21.1060    7.3890 C.3   173  ALA173      0.0290
     96  N         10.2690   16.6730    9.1880 N.3   178  GLN178     -0.1231
     97  CA         9.5270   17.8730    8.8140 C.3   178  GLN178      0.1698
     98  C         10.1140   19.1470    9.4230 C.2   178  GLN178      0.2592
     99  O          9.4340   19.8910   10.1350 O.2   178  GLN178     -0.2718
    100  CB         8.0440   17.7200    9.1770 C.3   178  GLN178      0.0381
    101  CG         7.3190   16.6280    8.3710 C.3   178  GLN178      0.0905
    102  CD         7.1150   17.0250    6.9160 C.2   178  GLN178      0.2608
    103  OE1        6.2820   17.8810    6.6140 O.2   178  GLN178     -0.2717
    104  NE2        7.8860   16.4200    6.0100 N.am  178  GLN178     -0.0878
    105  N         11.4000   19.3600    9.1590 N.am  179  PHE179     -0.1962
    106  CA        12.1230   20.5320    9.6250 C.3   179  PHE179      0.1771
    107  C         11.8150   21.7310    8.7280 C.2   179  PHE179      0.2619
    108  O         11.7690   21.5990    7.5050 O.2   179  PHE179     -0.2715
    109  CB        13.6360   20.2860    9.5210 C.3   179  PHE179      0.0574
    110  CG        14.2870   19.8280   10.8040 C.ar  179  PHE179     -0.0200
    111  CD1       13.6760   18.8890   11.6300 C.ar  179  PHE179     -0.0042
    112  CD2       15.5330   20.3380   11.1750 C.ar  179  PHE179     -0.0042
    113  CE1       14.3030   18.4610   12.8140 C.ar  179  PHE179     -0.0003
    114  CE2       16.1620   19.9180   12.3510 C.ar  179  PHE179     -0.0003
    115  CZ        15.5420   18.9790   13.1690 C.ar  179  PHE179     -0.0000
    116  N         11.5960   22.8900    9.3380 N.am  180  MET180     -0.1977
    117  CA        11.3970   24.1280    8.5850 C.3   180  MET180      0.1605
    118  C         12.8210   24.5360    8.1740 C.2   180  MET180      0.2287
    119  O         13.7930   24.0890    8.7900 O.2   180  MET180     -0.2864
    120  CB        10.8240   25.2210    9.4960 C.3   180  MET180      0.0413
    121  CG         9.3710   25.0270    9.8900 C.3   180  MET180      0.0598
    122  SD         8.2940   25.0260    8.4500 S.3   180  MET180     -0.1393
    123  CE         8.3190   26.7720    7.9970 C.3   180  MET180      0.0692
    124  N         14.6030   27.2030    8.6510 N.3   182  SER182     -0.1202
    125  CA        15.3630   27.8130    9.7390 C.3   182  SER182      0.2020
    126  C         15.8120   26.7750   10.7670 C.2   182  SER182      0.2619
    127  O         16.8470   26.9480   11.4090 O.2   182  SER182     -0.2717
    128  CB        14.5630   28.9320   10.4090 C.3   182  SER182      0.2103
    129  OG        13.3540   28.4320   10.9530 O.3   182  SER182     -0.2182
    130  N         15.0260   25.7100   10.9350 N.am  183  SER183     -0.1951
    131  CA        15.3940   24.6390   11.8600 C.3   183  SER183      0.1924
    132  C         16.5500   23.8540   11.2470 C.2   183  SER183      0.2314
    133  O         17.4450   23.4050   11.9580 O.2   183  SER183     -0.2863
    134  CB        14.2110   23.7170   12.1400 C.3   183  SER183      0.2116
    135  OG        13.2620   24.3680   12.9580 O.3   183  SER183     -0.2180
    136  N         19.6100   23.7320   13.5530 N.3   187  TYR187     -0.1241
    137  CA        19.7150   22.4600   14.2670 C.3   187  TYR187      0.1605
    138  C         20.0370   21.1810   13.5080 C.2   187  TYR187      0.2264
    139  O         20.3710   20.1780   14.1310 O.2   187  TYR187     -0.2867
    140  CB        18.4290   22.2490   15.0730 C.3   187  TYR187      0.0534
    141  CG        17.9810   23.4860   15.8210 C.ar  187  TYR187     -0.0201
    142  CD1       18.7440   24.0080   16.8680 C.ar  187  TYR187     -0.0009
    143  CD2       16.8170   24.1620   15.4510 C.ar  187  TYR187     -0.0009
    144  CE1       18.3640   25.1770   17.5240 C.ar  187  TYR187      0.0417
    145  CE2       16.4230   25.3320   16.1040 C.ar  187  TYR187      0.0417
    146  CZ        17.2030   25.8340   17.1370 C.ar  187  TYR187      0.1957
    147  OH        16.8350   26.9980   17.7770 O.3   187  TYR187     -0.2866
    148  N         17.9380   19.0580   17.9180 N.3   212  TYR212     -0.1241
    149  CA        16.8700   20.0440   18.0800 C.3   212  TYR212      0.1605
    150  C         16.3660   19.9670   19.5200 C.2   212  TYR212      0.2264
    151  O         16.1780   20.9890   20.1700 O.2   212  TYR212     -0.2867
    152  CB        15.7160   19.7440   17.1160 C.3   212  TYR212      0.0534
    153  CG        14.6020   20.7780   17.1190 C.ar  212  TYR212     -0.0201
    154  CD1       13.6570   20.8220   18.1510 C.ar  212  TYR212     -0.0009
    155  CD2       14.4770   21.6900   16.0730 C.ar  212  TYR212     -0.0009
    156  CE1       12.6180   21.7490   18.1410 C.ar  212  TYR212      0.0417
    157  CE2       13.4390   22.6220   16.0460 C.ar  212  TYR212      0.0417
    158  CZ        12.5130   22.6470   17.0820 C.ar  212  TYR212      0.1957
    159  OH        11.4850   23.5640   17.0500 O.3   212  TYR212     -0.2866
    160  N          7.9990   22.3190   21.7360 N.3   290  ARG290     -0.1231
    161  CA         8.8430   23.2940   21.0380 C.3   290  ARG290      0.1694
    162  C          9.0380   22.8490   19.5840 C.2   290  ARG290      0.2592
    163  O          9.4050   23.6520   18.7190 O.2   290  ARG290     -0.2718
    164  CB        10.2050   23.4630   21.7160 C.3   290  ARG290      0.0321
    165  CG        10.1740   24.0420   23.1260 C.3   290  ARG290      0.0489
    166  CD         9.3830   25.3360   23.2030 C.3   290  ARG290      0.2205
    167  NE         7.9510   25.0750   23.3530 N.pl3 290  ARG290     -0.0865
    168  CZ         6.9830   25.8860   22.9360 C.cat 290  ARG290      0.5346
    169  NH1        7.2750   27.0300   22.3260 N.pl3 290  ARG290      0.1354
    170  NH2        5.7140   25.5480   23.1240 N.pl3 290  ARG290      0.1354
    171  N          8.8010   21.5610   19.3270 N.am  291  TYR291     -0.1962
    172  CA         8.9170   21.0000   17.9830 C.3   291  TYR291      0.1771
    173  C          7.6490   21.3320   17.1910 C.2   291  TYR291      0.2620
    174  O          7.7090   21.6350   16.0020 O.2   291  TYR291     -0.2715
    175  CB         9.1110   19.4860   18.0660 C.3   291  TYR291      0.0574
    176  CG         9.7570   18.8640   16.8450 C.ar  291  TYR291     -0.0198
    177  CD1        8.9970   18.5130   15.7250 C.ar  291  TYR291     -0.0009
    178  CD2       11.1200   18.5960   16.8250 C.ar  291  TYR291     -0.0009
    179  CE1        9.5890   17.9060   14.6220 C.ar  291  TYR291      0.0417
    180  CE2       11.7210   17.9880   15.7320 C.ar  291  TYR291      0.0417
    181  CZ        10.9550   17.6480   14.6370 C.ar  291  TYR291      0.1957
    182  OH        11.5600   17.0550   13.5570 O.3   291  TYR291     -0.2866
    183  N          6.5070   21.2660   17.8740 N.am  292  ASN292     -0.1958
    184  CA         5.1930   21.5590   17.2990 C.3   292  ASN292      0.1819
    185  C          4.3280   21.9550   18.4880 C.2   292  ASN292      0.2621
    186  O          4.0580   21.1410   19.3750 O.2   292  ASN292     -0.2715
    187  CB         4.6240   20.3240   16.5950 C.3   292  ASN292      0.1195
    188  CG         3.3380   20.6150   15.8440 C.2   292  ASN292      0.2630
    189  OD1        2.3100   20.9130   16.4450 O.2   292  ASN292     -0.2716
    190  ND2        3.3880   20.5080   14.5240 N.am  292  ASN292     -0.0877
    191  N          3.9190   23.2210   18.5050 N.am  293  HIS293     -0.1973
    192  CA         3.1440   23.8160   19.5970 C.3   293  HIS293      0.1656
    193  C          1.7360   23.2630   19.8310 C.2   293  HIS293      0.2291
    194  O          0.7440   23.9710   19.6430 O.2   293  HIS293     -0.2864
    195  CB         3.0890   25.3400   19.4100 C.3   293  HIS293      0.0771
    196  CG         4.4090   25.9630   19.0570 C.ar  293  HIS293      0.0820
    197  ND1        4.5110   27.0920   18.2710 N.ar  293  HIS293     -0.2267
    198  CD2        5.6790   25.6200   19.3840 C.ar  293  HIS293      0.1154
    199  CE1        5.7840   27.4170   18.1290 C.ar  293  HIS293      0.1986
    200  NE2        6.5140   26.5400   18.7940 N.ar  293  HIS293     -0.2212
@<TRIPOS>BOND
     1    84    85   ar
     2    84    82   ar
     3    85    83   ar
     4    82    80   ar
     5    72    71    2
     6    83    81   ar
     7    80    81   ar
     8    80    79    1
     9    76    79    1
    10    76    75    1
    11    76    77    1
    12    71    75   am
    13    71    70    1
    14    78    77    2
    15    69    70    1
    16    77    86   am
    17    70    73    1
    18     7     6    1
    19     6     8    1
    20     6     5    1
    21    61    60    2
    22     1     2    1
    23    94    93    2
    24    86    87    1
    25    60    59    1
    26    88    87    1
    27    88    89    2
    28     5     2    1
    29    73    74    1
    30    62    59    1
    31    62    63    1
    32    91    92    1
    33    93    92    1
    34    87    90    1
    35     2     3    1
    36    59    58    1
    37   104   102   am
    38    63    64   ar
    39    63    65   ar
    40    64    66   ar
    41    92    95    1
    42     9     3   am
    43     9    10    1
    44    13    10    1
    45    13    14    1
    46   103   102    2
    47     3     4    2
    48    16    15    1
    49    65    67   ar
    50   102   101    1
    51    66    68   ar
    52    58    48   am
    53    10    11    1
    54    14    15    1
    55   108   107    2
    56    38    37    2
    57    67    68   ar
    58    37    36    1
    59    49    48    2
    60    11    12    2
    61   123   122    1
    62    48    47    1
    63   118   117    1
    64   118   119    2
    65   101   100    1
    66   122   121    1
    67    35    36    1
    68   117   116    1
    69   117   120    1
    70   124   125    1
    71   107   116   am
    72   107   106    1
    73    36    39    1
    74    46    47    1
    75    97   100    1
    76    97    96    1
    77    97    98    1
    78    39    40    1
    79   105    98   am
    80   105   106    1
    81    29    28    2
    82    47    50    1
    83    98    99    2
    84   120   121    1
    85   109   106    1
    86   109   110    1
    87   125   128    1
    88   125   126    1
    89    53    55   ar
    90    53    51   ar
    91    28    27    1
    92    25    23   am
    93    55    56   ar
    94    24    23    2
    95    50    51    1
    96    23    22    1
    97    40    41    1
    98   128   129    1
    99    51    52   ar
   100    17    18    1
   101    22    21    1
   102    41    42    1
   103   126   130   am
   104   126   127    2
   105   110   112   ar
   106   110   111   ar
   107    44    43    1
   108    56    57    1
   109    56    54   ar
   110   130   131    1
   111   112   114   ar
   112    21    18    1
   113   132   131    1
   114   132   133    2
   115    42    43    2
   116    52    54   ar
   117    27    30    1
   118    27    26    1
   119    43    45    1
   120    30    31    1
   121    33    32   ar
   122   111   113   ar
   123    18    19    1
   124   131   134    1
   125   134   135    1
   126   114   115   ar
   127    19    20    2
   128    32    31    1
   129    32    34   ar
   130   113   115   ar
   131   138   139    2
   132   138   137    1
   133   136   137    1
   134   182   181    1
   135   137   140    1
   136   190   188   am
   137   179   181   ar
   138   179   177   ar
   139   181   180   ar
   140   140   141    1
   141   143   141   ar
   142   143   145   ar
   143   177   176   ar
   144   180   178   ar
   145   141   142   ar
   146   188   189    2
   147   188   187    1
   148   174   173    2
   149   157   155   ar
   150   157   158   ar
   151   155   153   ar
   152   145   146   ar
   153   187   184    1
   154   178   176   ar
   155   176   175    1
   156   142   144   ar
   157   159   158    1
   158   158   156   ar
   159   152   153    1
   160   152   149    1
   161   153   154   ar
   162   146   144   ar
   163   146   147    1
   164   173   183   am
   165   173   172    1
   166   184   183    1
   167   184   185    1
   168   148   149    1
   169   172   175    1
   170   172   171    1
   171   149   150    1
   172   199   197   ar
   173   199   200   ar
   174   156   154   ar
   175   197   196   ar
   176   185   191   am
   177   185   186    2
   178   191   192    1
   179   163   162    2
   180   200   198   ar
   181   196   198   ar
   182   196   195    1
   183   171   162   am
   184   195   192    1
   185   150   151    2
   186   162   161    1
   187   192   193    1
   188   194   193    2
   189   161   164    1
   190   161   160    1
   191   164   165    1
   192   169   168    1
   193   168   170    1
   194   168   167    2
   195   165   166    1
   196   166   167    1
