@<TRIPOS>MOLECULE
tmp/1d0mA00.pdb
 136 131 0 0 0
SMALL
GASTEIGER

@<TRIPOS>ATOM
      1  N         -7.4800   11.7630   17.7510 N.3    68  TYR68      -0.1241
      2  CA        -6.1670   12.2180   17.3180 C.3    68  TYR68       0.1605
      3  C         -5.1520   11.0970   17.5060 C.2    68  TYR68       0.2264
      4  O         -4.2880   10.8680   16.6620 O.2    68  TYR68      -0.2867
      5  CB        -5.7470   13.4400   18.1420 C.3    68  TYR68       0.0534
      6  CG        -4.4880   14.1110   17.6520 C.ar   68  TYR68      -0.0201
      7  CD1       -3.2310   13.6320   18.0220 C.ar   68  TYR68      -0.0009
      8  CD2       -4.5490   15.2330   16.8190 C.ar   68  TYR68      -0.0009
      9  CE1       -2.0660   14.2510   17.5760 C.ar   68  TYR68       0.0417
     10  CE2       -3.3930   15.8580   16.3720 C.ar   68  TYR68       0.0417
     11  CZ        -2.1540   15.3600   16.7540 C.ar   68  TYR68       0.1957
     12  OH        -1.0020   15.9760   16.3210 O.3    68  TYR68      -0.2866
     13  N         -4.8790    8.0850   15.0400 N.3    71  LYS71      -0.1231
     14  CA        -4.2910    8.4630   13.7610 C.3    71  LYS71       0.1693
     15  C         -2.8270    8.0610   13.7060 C.2    71  LYS71       0.2592
     16  O         -2.2840    7.8300   12.6260 O.2    71  LYS71      -0.2718
     17  CB        -4.3950    9.9720   13.5550 C.3    71  LYS71       0.0285
     18  CG        -5.7930   10.4720   13.2180 C.3    71  LYS71       0.0035
     19  CD        -5.8910   11.9840   13.3510 C.3    71  LYS71       0.0206
     20  CE        -4.8080   12.6900   12.5650 C.3    71  LYS71       0.1093
     21  NZ        -4.7850   14.1440   12.8600 N.3    71  LYS71      -0.1314
     22  N         -2.2040    7.9510   14.8790 N.am   72  PHE72      -0.1976
     23  CA        -0.7890    7.6050   14.9700 C.3    72  PHE72       0.1639
     24  C         -0.4760    6.2970   15.6960 C.2    72  PHE72       0.2290
     25  O          0.4870    5.6180   15.3520 O.2    72  PHE72      -0.2864
     26  CB        -0.0240    8.7540   15.6420 C.3    72  PHE72       0.0560
     27  CG        -0.2660   10.0960   15.0100 C.ar   72  PHE72      -0.0200
     28  CD1        0.2750   10.4010   13.7650 C.ar   72  PHE72      -0.0042
     29  CD2       -1.0530   11.0520   15.6520 C.ar   72  PHE72      -0.0042
     30  CE1        0.0370   11.6360   13.1590 C.ar   72  PHE72      -0.0003
     31  CE2       -1.2970   12.2900   15.0560 C.ar   72  PHE72      -0.0003
     32  CZ        -0.7500   12.5830   13.8070 C.ar   72  PHE72      -0.0000
     33  N          5.1920   10.3860   14.0280 N.3   112  VAL112     -0.1231
     34  CA         4.0590   11.3000   13.8930 C.3   112  VAL112      0.1692
     35  C          4.2500   12.2270   12.6920 C.2   112  VAL112      0.2592
     36  O          3.2960   12.5590   11.9930 O.2   112  VAL112     -0.2718
     37  CB         3.8530   12.1260   15.1960 C.3   112  VAL112      0.0266
     38  CG1        2.8460   13.2670   14.9850 C.3   112  VAL112      0.0020
     39  CG2        3.3770   11.2010   16.3240 C.3   112  VAL112      0.0020
     40  N          5.5060   12.5560   12.3970 N.am  113  GLU113     -0.1966
     41  CA         5.8380   13.4530   11.2910 C.3   113  GLU113      0.1733
     42  C          5.6790   12.9130    9.8750 C.2   113  GLU113      0.2617
     43  O          5.0420   13.5560    9.0430 O.2   113  GLU113     -0.2715
     44  CB         7.2510   14.0020   11.4560 C.3   113  GLU113      0.0429
     45  CG         7.4490   14.8910   12.6660 C.3   113  GLU113      0.1163
     46  CD         6.6240   16.1620   12.6350 C.2   113  GLU113      0.3649
     47  OE1        6.0330   16.4930   11.5860 O.co2 113  GLU113     -0.2457
     48  OE2        6.5690   16.8430   13.6730 O.co2 113  GLU113     -0.2457
     49  N          6.3070   11.7790    9.5680 N.am  114  THR114     -0.1937
     50  CA         6.2170   11.2270    8.2190 C.3   114  THR114      0.2028
     51  C          6.0110    9.7180    8.1570 C.2   114  THR114      0.2642
     52  O          6.1600    9.1260    7.0940 O.2   114  THR114     -0.2714
     53  CB         7.4920   11.5540    7.3890 C.3   114  THR114      0.1808
     54  OG1        8.6210   10.8720    7.9420 O.3   114  THR114     -0.2208
     55  CG2        7.7790   13.0450    7.3800 C.3   114  THR114      0.0379
     56  N          5.6240    9.1010    9.2690 N.am  115  ARG115     -0.1977
     57  CA         5.4530    7.6470    9.3340 C.3   115  ARG115      0.1597
     58  C          6.7760    6.9950    8.9330 C.2   115  ARG115      0.2287
     59  O          6.8210    6.0800    8.1230 O.2   115  ARG115     -0.2864
     60  CB         4.3120    7.1570    8.4240 C.3   115  ARG115      0.0334
     61  CG         2.9500    7.7700    8.7190 C.3   115  ARG115      0.0492
     62  CD         2.4980    7.5130   10.1470 C.3   115  ARG115      0.2205
     63  NE         1.3320    8.3210   10.5190 N.pl3 115  ARG115     -0.0865
     64  CZ         0.1100    8.1630   10.0150 C.cat 115  ARG115      0.5346
     65  NH1       -0.1280    7.2260    9.1010 N.pl3 115  ARG115      0.1354
     66  NH2       -0.8780    8.9490   10.4230 N.pl3 115  ARG115      0.1354
     67  N          5.4860    9.3810    4.3930 N.3   119  VAL119     -0.1231
     68  CA         4.6810   10.5500    4.0330 C.3   119  VAL119      0.1692
     69  C          5.5180   11.8020    4.2470 C.2   119  VAL119      0.2592
     70  O          5.3820   12.4830    5.2560 O.2   119  VAL119     -0.2718
     71  CB         3.3860   10.6480    4.9020 C.3   119  VAL119      0.0266
     72  CG1        2.4950   11.7880    4.4170 C.3   119  VAL119      0.0020
     73  CG2        2.6140    9.3280    4.8750 C.3   119  VAL119      0.0020
     74  N          6.3660   12.1120    3.2740 N.am  120  MET120     -0.1965
     75  CA         7.2540   13.2640    3.3500 C.3   120  MET120      0.1736
     76  C          6.6190   14.5670    2.9090 C.2   120  MET120      0.2617
     77  O          7.1760   15.6360    3.1600 O.2   120  MET120     -0.2715
     78  CB         8.4890   13.0290    2.4810 C.3   120  MET120      0.0427
     79  CG         9.2510   11.7650    2.7830 C.3   120  MET120      0.0599
     80  SD        10.2840   11.9060    4.2100 S.3   120  MET120     -0.1393
     81  CE        11.8160   11.3920    3.5030 C.3   120  MET120      0.0692
     82  N          5.4760   14.4760    2.2350 N.am  121  GLY121     -0.1955
     83  CA         4.8060   15.6680    1.7390 C.3   121  GLY121      0.1869
     84  C          4.8980   15.7190    0.2230 C.2   121  GLY121      0.2309
     85  O          5.8840   15.2620   -0.3530 O.2   121  GLY121     -0.2863
     86  N          5.7420   19.6810    3.3300 N.3   167  SER167     -0.1202
     87  CA         4.3930   20.0510    3.7580 C.3   167  SER167      0.2020
     88  C          3.8740   21.3900    3.2350 C.2   167  SER167      0.2618
     89  O          4.6080   22.1500    2.5930 O.2   167  SER167     -0.2717
     90  CB         4.3030   20.0280    5.2780 C.3   167  SER167      0.2103
     91  OG         4.8070   21.2260    5.8200 O.3   167  SER167     -0.2182
     92  N          2.6000   21.6670    3.5140 N.am  168  PHE168     -0.1975
     93  CA         1.9570   22.9100    3.0830 C.3   168  PHE168      0.1639
     94  C          2.5790   24.1390    3.7550 C.2   168  PHE168      0.2290
     95  O          2.3100   25.2640    3.3490 O.2   168  PHE168     -0.2864
     96  CB         0.4480   22.8660    3.3670 C.3   168  PHE168      0.0560
     97  CG        -0.3170   21.9010    2.4890 C.ar  168  PHE168     -0.0200
     98  CD1       -0.6310   20.6210    2.9410 C.ar  168  PHE168     -0.0042
     99  CD2       -0.7200   22.2710    1.2110 C.ar  168  PHE168     -0.0042
    100  CE1       -1.3380   19.7180    2.1260 C.ar  168  PHE168     -0.0003
    101  CE2       -1.4270   21.3800    0.3880 C.ar  168  PHE168     -0.0003
    102  CZ        -1.7350   20.1040    0.8450 C.ar  168  PHE168     -0.0000
    103  N          7.7860   22.3950    5.4580 N.3   171  ALA171     -0.1245
    104  CA         8.5930   21.5510    6.3500 C.3   171  ALA171      0.1562
    105  C          9.1990   20.4050    5.5330 C.2   171  ALA171      0.2260
    106  O          8.5240   19.8340    4.6830 O.2   171  ALA171     -0.2867
    107  CB         7.7350   21.0170    7.4710 C.3   171  ALA171      0.0290
    108  N         10.4830   16.5520    9.2340 N.3   176  GLN176     -0.1245
    109  CA         9.7180   17.7140    8.8160 C.3   176  GLN176      0.1566
    110  C         10.2680   19.0090    9.4270 C.2   176  GLN176      0.2260
    111  O          9.5680   19.7360   10.1210 O.2   176  GLN176     -0.2867
    112  CB         8.2280   17.5400    9.1390 C.3   176  GLN176      0.0367
    113  CG         7.5320   16.4800    8.2990 C.3   176  GLN176      0.0905
    114  CD         7.1540   16.9760    6.9180 C.2   176  GLN176      0.2608
    115  OE1        6.2460   17.7920    6.7760 O.2   176  GLN176     -0.2717
    116  NE2        7.8290   16.4670    5.8890 N.am  176  GLN176     -0.0878
    117  N          6.4920   21.1980   17.8080 N.3   290  ASN290     -0.1240
    118  CA         5.1730   21.4670   17.2390 C.3   290  ASN290      0.1653
    119  C          4.3150   21.9060   18.4270 C.2   290  ASN290      0.2266
    120  O          4.0990   21.1300   19.3520 O.2   290  ASN290     -0.2867
    121  CB         4.6110   20.1940   16.6070 C.3   290  ASN290      0.1155
    122  CG         3.4160   20.4570   15.7170 C.2   290  ASN290      0.2627
    123  OD1        2.4330   21.0520   16.1320 O.2   290  ASN290     -0.2716
    124  ND2        3.4960   19.9940   14.4870 N.am  290  ASN290     -0.0877
    125  N         -0.2080   16.7980   19.9330 N.3   295  TYR295     -0.1241
    126  CA         0.9370   16.3970   19.1300 C.3   295  TYR295      0.1605
    127  C          1.9710   15.6960   19.9920 C.2   295  TYR295      0.2264
    128  O          2.4130   14.5820   19.6790 O.2   295  TYR295     -0.2867
    129  CB         1.5770   17.6310   18.4770 C.3   295  TYR295      0.0534
    130  CG         2.9070   17.3460   17.8250 C.ar  295  TYR295     -0.0201
    131  CD1        4.0900   17.4680   18.5450 C.ar  295  TYR295     -0.0009
    132  CD2        2.9760   16.8640   16.5150 C.ar  295  TYR295     -0.0009
    133  CE1        5.3070   17.1080   17.9910 C.ar  295  TYR295      0.0417
    134  CE2        4.1940   16.5000   15.9540 C.ar  295  TYR295      0.0417
    135  CZ         5.3520   16.6210   16.7040 C.ar  295  TYR295      0.1957
    136  OH         6.5570   16.2130   16.1900 O.3   295  TYR295     -0.2866
@<TRIPOS>BOND
     1    85    84    2
     2    84    83    1
     3   101   102   ar
     4   101    99   ar
     5   102   100   ar
     6    99    97   ar
     7    83    82    1
     8   100    98   ar
     9    82    76   am
    10    78    79    1
    11    78    75    1
    12    97    98   ar
    13    97    96    1
    14    89    88    2
    15    79    80    1
    16    76    77    2
    17    76    75    1
    18    93    96    1
    19    93    92    1
    20    93    94    1
    21    88    92   am
    22    88    87    1
    23    74    75    1
    24    74    69   am
    25    86    87    1
    26    95    94    2
    27    81    80    1
    28    87    90    1
    29    68    69    1
    30    68    67    1
    31    68    71    1
    32    69    70    2
    33    72    71    1
    34   106   105    2
    35    73    71    1
    36    90    91    1
    37   103   104    1
    38   105   104    1
    39   116   114   am
    40   104   107    1
    41   115   114    2
    42   114   113    1
    43    52    51    2
    44    55    53    1
    45    53    54    1
    46    53    50    1
    47    59    58    2
    48    51    50    1
    49    51    56   am
    50    50    49    1
    51   113   112    1
    52    60    61    1
    53    60    57    1
    54    61    62    1
    55   109   112    1
    56   109   108    1
    57   109   110    1
    58    58    57    1
    59    43    42    2
    60    65    64    1
    61    56    57    1
    62   110   111    2
    63    49    42   am
    64    42    41    1
    65    64    66    1
    66    64    63    2
    67    62    63    1
    68    41    44    1
    69    41    40    1
    70    44    45    1
    71    47    46   ar
    72    36    35    2
    73    40    35   am
    74    20    21    1
    75    20    19    1
    76    16    15    2
    77    46    45    1
    78    46    48   ar
    79    35    34    1
    80    30    28   ar
    81    30    32   ar
    82    18    19    1
    83    18    17    1
    84    17    14    1
    85    15    14    1
    86    15    22   am
    87    14    13    1
    88    28    27   ar
    89    32    31   ar
    90    34    33    1
    91    34    37    1
    92   124   122   am
    93    22    23    1
    94    23    26    1
    95    23    24    1
    96    38    37    1
    97    27    26    1
    98    27    29   ar
    99    31    29   ar
   100    37    39    1
   101    25    24    2
   102   122   123    2
   103   122   121    1
   104   134   132   ar
   105   134   135   ar
   106   136   135    1
   107    12    11    1
   108    10    11   ar
   109    10     8   ar
   110   132   130   ar
   111   121   118    1
   112     4     3    2
   113   135   133   ar
   114    11     9   ar
   115     8     6   ar
   116   118   117    1
   117   118   119    1
   118     2     3    1
   119     2     1    1
   120     2     5    1
   121     9     7   ar
   122     6     7   ar
   123     6     5    1
   124   130   129    1
   125   130   131   ar
   126   133   131   ar
   127   119   120    2
   128   129   126    1
   129   126   125    1
   130   126   127    1
   131   128   127    2
