@<TRIPOS>MOLECULE
tmp/1d0sA00.pdb
 80 74 0 0 0
SMALL
GASTEIGER

@<TRIPOS>ATOM
      1  N         64.6980   42.9720    7.6330 N.3    77  SER77      -0.1203
      2  CA        64.7770   43.0400    9.0810 C.3    77  SER77       0.2005
      3  C         65.9700   42.2270    9.5250 C.2    77  SER77       0.2460
      4  O         66.1460   41.1370    9.0510 O.2    77  SER77      -0.2732
      5  CB        63.5570   42.4140    9.7550 C.3    77  SER77       0.2103
      6  OG        62.3660   42.9710    9.2510 O.3    77  SER77      -0.2182
      7  N         66.7660   42.7000   10.4550 N.am   78  PRO78      -0.2728
      8  CA        67.8540   41.8730   10.9200 C.3    78  PRO78       0.1401
      9  C         67.3320   40.5350   11.4800 C.2    78  PRO78       0.2269
     10  O         66.2550   40.4610   12.0750 O.2    78  PRO78      -0.2865
     11  CB        68.5400   42.7060   12.0180 C.3    78  PRO78       0.0296
     12  CG        68.1110   44.1510   11.8170 C.3    78  PRO78       0.0237
     13  CD        66.9160   44.1240   10.8870 C.3    78  PRO78       0.0939
     14  N         66.0150   40.0230   15.1970 N.3    81  VAL81      -0.1245
     15  CA        64.7000   40.5390   15.5600 C.3    81  VAL81       0.1561
     16  C         63.7590   39.4330   16.0390 C.2    81  VAL81       0.2260
     17  O         62.9920   39.6190   16.9860 O.2    81  VAL81      -0.2867
     18  CB        64.1010   41.3710   14.4270 C.3    81  VAL81       0.0252
     19  CG1       62.6850   41.8690   14.7640 C.3    81  VAL81       0.0019
     20  CG2       65.0190   42.5460   14.1290 C.3    81  VAL81       0.0019
     21  N         62.1780   40.1860   19.4870 N.3    85  GLN85      -0.1245
     22  CA        60.7370   40.3520   19.5100 C.3    85  GLN85       0.1566
     23  C         60.0760   39.2370   20.3490 C.2    85  GLN85       0.2260
     24  O         59.0690   39.4410   21.0640 O.2    85  GLN85      -0.2867
     25  CB        60.1610   40.3820   18.0810 C.3    85  GLN85       0.0367
     26  CG        59.7430   41.7740   17.5880 C.3    85  GLN85       0.0905
     27  CD        58.8410   42.5370   18.5360 C.2    85  GLN85       0.2608
     28  OE1       59.3150   43.1960   19.4790 O.2    85  GLN85      -0.2717
     29  NE2       57.5350   42.4630   18.2900 N.am   85  GLN85      -0.0878
     30  N         52.3360   34.3070   14.1300 N.3   171  GLU171     -0.1231
     31  CA        53.7500   33.9360   14.0070 C.3   171  GLU171      0.1699
     32  C         54.7010   35.1060   14.2510 C.2   171  GLU171      0.2592
     33  O         54.3060   36.2570   14.4350 O.2   171  GLU171     -0.2718
     34  CB        54.0640   33.3040   12.6260 C.3   171  GLU171      0.0402
     35  CG        53.3570   34.0650   11.4820 C.3   171  GLU171      0.1161
     36  CD        53.8010   35.5010   11.3640 C.2   171  GLU171      0.3649
     37  OE1       54.9070   35.8080   11.0000 O.co2 171  GLU171     -0.2457
     38  OE2       52.8850   36.3840   11.6990 O.co2 171  GLU171     -0.2457
     39  N         55.9800   34.7630   14.2300 N.am  172  LEU172     -0.1966
     40  CA        57.0900   35.6860   14.3580 C.3   172  LEU172      0.1728
     41  C         58.3240   35.0410   13.7150 C.2   172  LEU172      0.2617
     42  O         58.8280   34.0160   14.1750 O.2   172  LEU172     -0.2715
     43  CB        57.3010   36.1480   15.8140 C.3   172  LEU172      0.0311
     44  CG        58.4450   37.1190   16.0180 C.3   172  LEU172      0.0022
     45  CD1       58.0220   38.4910   15.4800 C.3   172  LEU172      0.0001
     46  CD2       58.7410   37.1810   17.5130 C.3   172  LEU172      0.0001
     47  N         58.7980   35.5880   12.5990 N.am  173  GLY173     -0.1940
     48  CA        59.9460   34.9660   11.9420 C.3   173  GLY173      0.2014
     49  C         60.3810   35.7800   10.7650 C.2   173  GLY173      0.2638
     50  O         59.6780   35.8490    9.7510 O.2   173  GLY173     -0.2714
     51  N         61.5580   36.3980   10.9050 N.am  174  MET174     -0.1976
     52  CA        62.0680   37.2230    9.8250 C.3   174  MET174      0.1605
     53  C         62.1850   36.3730    8.5820 C.2   174  MET174      0.2287
     54  O         62.6780   35.2450    8.6590 O.2   174  MET174     -0.2864
     55  CB        63.4380   37.8310   10.1670 C.3   174  MET174      0.0413
     56  CG        63.4190   38.4750   11.5240 C.3   174  MET174      0.0598
     57  SD        62.1780   39.7970   11.5720 S.3   174  MET174     -0.1393
     58  CE        60.9510   39.0810   12.7100 C.3   174  MET174      0.0692
     59  N         57.9300   42.6250    5.2520 N.3   200  ALA200     -0.1245
     60  CA        58.2420   43.7270    6.1270 C.3   200  ALA200      0.1562
     61  C         59.0430   44.8310    5.4390 C.2   200  ALA200      0.2260
     62  O         60.2150   45.0570    5.7210 O.2   200  ALA200     -0.2867
     63  CB        58.8260   43.3060    7.4860 C.3   200  ALA200      0.0290
     64  N         51.3620   43.4340    9.9860 N.3   312  LEU312     -0.1245
     65  CA        52.3330   43.2690   11.0440 C.3   312  LEU312      0.1561
     66  C         52.5650   41.7950   11.3950 C.2   312  LEU312      0.2260
     67  O         53.6840   41.3800   11.6850 O.2   312  LEU312     -0.2867
     68  CB        51.9310   44.0610   12.2960 C.3   312  LEU312      0.0270
     69  CG        52.7050   43.6850   13.5580 C.3   312  LEU312      0.0019
     70  CD1       54.1830   44.0570   13.3840 C.3   312  LEU312      0.0001
     71  CD2       52.1140   44.4750   14.7260 C.3   312  LEU312      0.0001
     72  N         52.1090   38.4360   13.8120 N.3   314  GLU314     -0.1245
     73  CA        52.1340   38.2120   15.2590 C.3   314  GLU314      0.1567
     74  C         50.8060   37.7420   15.8200 C.2   314  GLU314      0.2260
     75  O         50.6740   37.4450   17.0090 O.2   314  GLU314     -0.2867
     76  CB        52.4650   39.5130   16.0270 C.3   314  GLU314      0.0388
     77  CG        53.8350   40.1520   15.7600 C.3   314  GLU314      0.1160
     78  CD        54.0740   41.3270   16.6720 C.2   314  GLU314      0.3649
     79  OE1       53.2960   41.6780   17.5350 O.co2 314  GLU314     -0.2457
     80  OE2       55.2100   41.9260   16.4580 O.co2 314  GLU314     -0.2457
@<TRIPOS>BOND
     1    59    60    1
     2    61    62    2
     3    61    60    1
     4    60    63    1
     5     1     2    1
     6    53    54    2
     7    53    52    1
     8     4     3    2
     9     2     3    1
    10     2     5    1
    11     6     5    1
    12     3     7   am
    13    50    49    2
    14    52    55    1
    15    52    51    1
    16    64    65    1
    17    55    56    1
    18     7    13    1
    19     7     8    1
    20    49    51   am
    21    49    48    1
    22    13    12    1
    23     8     9    1
    24     8    11    1
    25    37    36   ar
    26    65    66    1
    27    65    68    1
    28    36    35    1
    29    36    38   ar
    30    66    67    2
    31     9    10    2
    32    35    34    1
    33    56    57    1
    34    57    58    1
    35    12    11    1
    36    48    47    1
    37    68    69    1
    38    47    41   am
    39    34    31    1
    40    70    69    1
    41    69    71    1
    42    41    42    2
    43    41    40    1
    44    72    73    1
    45    31    30    1
    46    31    32    1
    47    20    18    1
    48    39    32   am
    49    39    40    1
    50    32    33    2
    51    40    43    1
    52    18    19    1
    53    18    15    1
    54    14    15    1
    55    73    74    1
    56    73    76    1
    57    45    44    1
    58    15    16    1
    59    77    76    1
    60    77    78    1
    61    43    44    1
    62    74    75    2
    63    44    46    1
    64    16    17    2
    65    80    78   ar
    66    78    79   ar
    67    26    25    1
    68    26    27    1
    69    25    22    1
    70    29    27   am
    71    27    28    2
    72    21    22    1
    73    22    23    1
    74    23    24    2
