@<TRIPOS>MOLECULE
tmp/1d0xA00.pdb
 135 132 0 0 0
SMALL
GASTEIGER

@<TRIPOS>ATOM
      1  N         39.5000   48.8050   20.2390 N.3   126  ASN126     -0.1226
      2  CA        40.4440   49.8830   20.3090 C.3   126  ASN126      0.1770
      3  C         41.7960   49.3620   20.7000 C.2   126  ASN126      0.2439
      4  O         41.9130   48.7290   21.7490 O.2   126  ASN126     -0.2733
      5  CB        40.0490   50.9670   21.3520 C.3   126  ASN126      0.1168
      6  CG        40.6940   52.3150   21.0900 C.2   126  ASN126      0.2627
      7  OD1       41.8240   52.4240   20.5490 O.2   126  ASN126     -0.2716
      8  ND2       40.0090   53.3810   21.5600 N.am  126  ASN126     -0.0877
      9  N         42.7840   49.6800   19.8990 N.am  127  PRO127     -0.2718
     10  CA        44.1640   49.3070   20.2170 C.3   127  PRO127      0.1535
     11  C         44.7620   50.3140   21.2480 C.2   127  PRO127      0.2599
     12  O         45.7680   50.0680   21.9310 O.2   127  PRO127     -0.2715
     13  CB        44.9980   49.5360   18.9130 C.3   127  PRO127      0.0310
     14  CG        44.1380   50.5200   18.0640 C.3   127  PRO127      0.0237
     15  CD        42.6740   50.3320   18.5510 C.3   127  PRO127      0.0939
     16  N         44.2270   51.5180   21.2880 N.am  128  PHE128     -0.1960
     17  CA        44.7710   52.5200   22.1770 C.3   128  PHE128      0.1771
     18  C         46.1650   52.9190   21.7830 C.2   128  PHE128      0.2619
     19  O         46.9210   53.2550   22.6600 O.2   128  PHE128     -0.2715
     20  CB        44.7810   52.1930   23.7200 C.3   128  PHE128      0.0574
     21  CG        43.3920   52.5310   24.2180 C.ar  128  PHE128     -0.0200
     22  CD1       42.6400   51.6070   24.9480 C.ar  128  PHE128     -0.0042
     23  CD2       42.8130   53.7370   23.8380 C.ar  128  PHE128     -0.0042
     24  CE1       41.3130   51.8440   25.3110 C.ar  128  PHE128     -0.0003
     25  CE2       41.4990   54.0110   24.2150 C.ar  128  PHE128     -0.0003
     26  CZ        40.7530   53.0620   24.9210 C.ar  128  PHE128     -0.0000
     27  N         46.4770   52.9080   20.5190 N.am  129  LYS129     -0.1963
     28  CA        47.7700   53.3270   19.9880 C.3   129  LYS129      0.1728
     29  C         47.5580   53.4810   18.5140 C.2   129  LYS129      0.2616
     30  O         46.5940   52.9220   18.0570 O.2   129  LYS129     -0.2715
     31  CB        48.9280   52.3970   20.2260 C.3   129  LYS129      0.0311
     32  CG        48.7970   51.0950   19.4740 C.3   129  LYS129      0.0038
     33  CD        50.0570   50.2670   19.7020 C.3   129  LYS129      0.0206
     34  CE        49.9730   48.9640   18.9750 C.3   129  LYS129      0.1093
     35  NZ        51.2380   48.1710   19.0790 N.3   129  LYS129     -0.1314
     36  N         48.3680   54.2520   17.8040 N.am  130  ARG130     -0.1963
     37  CA        48.1690   54.5050   16.3840 C.3   130  ARG130      0.1729
     38  C         48.7700   53.4190   15.5330 C.2   130  ARG130      0.2616
     39  O         49.8930   53.0480   15.7880 O.2   130  ARG130     -0.2715
     40  CB        48.7480   55.8710   16.0240 C.3   130  ARG130      0.0348
     41  CG        48.0300   56.9870   16.7960 C.3   130  ARG130      0.0492
     42  CD        46.5860   57.1470   16.3330 C.3   130  ARG130      0.2205
     43  NE        45.7890   58.1490   17.0340 N.pl3 130  ARG130     -0.0865
     44  CZ        44.4310   58.1840   16.9950 C.cat 130  ARG130      0.5346
     45  NH1       43.6820   57.3050   16.2660 N.pl3 130  ARG130      0.1354
     46  NH2       43.7960   59.1430   17.7000 N.pl3 130  ARG130      0.1354
     47  N         47.9420   52.8380   14.6590 N.am  131  ILE131     -0.1977
     48  CA        48.3100   51.7670   13.7350 C.3   131  ILE131      0.1596
     49  C         48.1880   52.3860   12.3510 C.2   131  ILE131      0.2287
     50  O         47.1570   52.9760   12.0820 O.2   131  ILE131     -0.2864
     51  CB        47.3490   50.6110   13.8460 C.3   131  ILE131      0.0276
     52  CG1       47.5340   49.9810   15.2400 C.3   131  ILE131      0.0022
     53  CG2       47.6880   49.6680   12.6790 C.3   131  ILE131      0.0022
     54  CD1       46.6780   48.7190   15.4120 C.3   131  ILE131      0.0001
     55  N         31.9650   54.4210   25.5350 N.3   180  SER180     -0.1202
     56  CA        32.7350   55.6480   25.3880 C.3   180  SER180      0.2020
     57  C         34.2080   55.2330   25.3430 C.2   180  SER180      0.2619
     58  O         34.6520   54.3840   26.1220 O.2   180  SER180     -0.2717
     59  CB        32.3610   56.6230   26.5110 C.3   180  SER180      0.2103
     60  OG        33.2420   57.7260   26.4670 O.3   180  SER180     -0.2182
     61  N         34.9690   55.7580   24.4110 N.am  181  GLY181     -0.1942
     62  CA        36.3580   55.3480   24.3410 C.3   181  GLY181      0.2014
     63  C         36.4840   54.1570   23.4770 C.2   181  GLY181      0.2639
     64  O         37.5840   53.7850   23.2270 O.2   181  GLY181     -0.2714
     65  N         35.4100   53.5840   22.9350 N.am  182  ALA182     -0.1963
     66  CA        35.5720   52.3810   22.0870 C.3   182  ALA182      0.1728
     67  C         36.1510   52.6260   20.6970 C.2   182  ALA182      0.2617
     68  O         36.5970   51.6650   20.1310 O.2   182  ALA182     -0.2715
     69  CB        34.2710   51.5850   21.8350 C.3   182  ALA182      0.0334
     70  N         36.0100   53.8120   20.1390 N.am  183  GLY183     -0.1940
     71  CA        36.5070   54.1480   18.7980 C.3   183  GLY183      0.2014
     72  C         35.4040   54.4260   17.7800 C.2   183  GLY183      0.2639
     73  O         35.6120   54.4250   16.5780 O.2   183  GLY183     -0.2714
     74  N         34.2060   54.6800   18.2310 N.am  184  LYS184     -0.1963
     75  CA        33.1060   54.9580   17.2840 C.3   184  LYS184      0.1728
     76  C         33.3420   56.1370   16.3580 C.2   184  LYS184      0.2617
     77  O         33.0850   56.0300   15.1840 O.2   184  LYS184     -0.2715
     78  CB        31.7870   55.2300   17.9830 C.3   184  LYS184      0.0311
     79  CG        31.2970   54.0770   18.8710 C.3   184  LYS184      0.0038
     80  CD        29.9820   54.4320   19.6720 C.3   184  LYS184      0.0206
     81  CE        30.0850   55.5290   20.7180 C.3   184  LYS184      0.1093
     82  NZ        31.0800   55.1690   21.7630 N.3   184  LYS184     -0.1314
     83  N         33.7430   57.2770   16.9300 N.am  185  THR185     -0.1937
     84  CA        33.9620   58.5110   16.2250 C.3   185  THR185      0.2028
     85  C         35.1350   58.4100   15.2930 C.2   185  THR185      0.2642
     86  O         35.1450   58.8090   14.1450 O.2   185  THR185     -0.2714
     87  CB        34.1040   59.5970   17.2420 C.3   185  THR185      0.1808
     88  OG1       32.8260   59.7480   17.8170 O.3   185  THR185     -0.2208
     89  CG2       34.4490   60.8690   16.4910 C.3   185  THR185      0.0379
     90  N         36.1280   57.7550   15.7730 N.am  186  GLU186     -0.1976
     91  CA        37.3240   57.5230   14.9490 C.3   186  GLU186      0.1602
     92  C         36.9530   56.7000   13.7210 C.2   186  GLU186      0.2287
     93  O         37.3680   56.9730   12.6170 O.2   186  GLU186     -0.2864
     94  CB        38.3990   56.7260   15.7830 C.3   186  GLU186      0.0415
     95  CG        39.1930   57.5760   16.8320 C.3   186  GLU186      0.1163
     96  CD        39.7320   58.9390   16.4050 C.2   186  GLU186      0.3649
     97  OE1       39.7990   59.8870   17.1730 O.co2 186  GLU186     -0.2457
     98  OE2       40.1830   59.0010   15.1530 O.co2 186  GLU186     -0.2457
     99  N         37.3310   59.2310   28.0030 N.3   227  ASN227     -0.1240
    100  CA        37.8250   59.5970   26.7040 C.3   227  ASN227      0.1653
    101  C         38.1410   61.0450   26.6900 C.2   227  ASN227      0.2266
    102  O         37.2890   61.8970   26.9990 O.2   227  ASN227     -0.2867
    103  CB        36.7050   59.2040   25.6020 C.3   227  ASN227      0.1155
    104  CG        37.0060   59.4710   24.1090 C.2   227  ASN227      0.2627
    105  OD1       38.1220   59.9840   23.7930 O.2   227  ASN227     -0.2716
    106  ND2       35.9960   59.1330   23.2030 N.am  227  ASN227     -0.0877
    107  N         38.4000   62.7160   24.2480 N.3   229  ASN229     -0.1225
    108  CA        37.6800   63.4350   23.2120 C.3   229  ASN229      0.1785
    109  C         36.3070   62.8210   23.0870 C.2   229  ASN229      0.2598
    110  O         35.9120   62.4690   21.9910 O.2   229  ASN229     -0.2718
    111  CB        38.4110   63.4590   21.8600 C.3   229  ASN229      0.1169
    112  CG        37.6060   64.1530   20.7740 C.2   229  ASN229      0.2627
    113  OD1       37.1420   65.2810   20.9730 O.2   229  ASN229     -0.2716
    114  ND2       37.4910   63.4800   19.6250 N.am  229  ASN229     -0.0877
    115  N         35.5730   62.7320   24.2190 N.am  230  SER230     -0.1938
    116  CA        34.2370   62.1240   24.2390 C.3   230  SER230      0.2055
    117  C         33.1640   62.9070   23.4650 C.2   230  SER230      0.2643
    118  O         33.0740   64.1570   23.5490 O.2   230  SER230     -0.2714
    119  CB        33.7830   61.7300   25.6240 C.3   230  SER230      0.2130
    120  OG        32.5150   61.1060   25.6220 O.3   230  SER230     -0.2179
    121  N         32.3790   62.1510   22.6560 N.am  231  SER231     -0.1949
    122  CA        31.3160   62.8190   21.9360 C.3   231  SER231      0.1924
    123  C         30.1980   62.9490   22.9570 C.2   231  SER231      0.2314
    124  O         29.7770   61.9280   23.4890 O.2   231  SER231     -0.2863
    125  CB        30.8170   61.8670   20.8400 C.3   231  SER231      0.2116
    126  OG        31.9020   61.4650   19.9940 O.3   231  SER231     -0.2180
    127  N         42.0730   52.8810   29.1480 N.3   643  GLN643     -0.1245
    128  CA        42.7230   53.5690   28.0470 C.3   643  GLN643      0.1566
    129  C         44.1910   53.1890   27.7800 C.2   643  GLN643      0.2260
    130  O         44.9600   54.0330   27.2910 O.2   643  GLN643     -0.2867
    131  CB        42.6270   55.1220   28.1350 C.3   643  GLN643      0.0367
    132  CG        41.1500   55.6380   28.1800 C.3   643  GLN643      0.0905
    133  CD        41.0580   57.1470   28.3900 C.2   643  GLN643      0.2608
    134  OE1       40.5580   57.6470   29.4130 O.2   643  GLN643     -0.2717
    135  NE2       41.5730   57.8830   27.4270 N.am  643  GLN643     -0.0878
@<TRIPOS>BOND
     1    50    49    2
     2    49    48    1
     3    93    92    2
     4    53    51    1
     5    92    91    1
     6    48    51    1
     7    48    47    1
     8    51    52    1
     9    86    85    2
    10    47    38   am
    11    91    90    1
    12    91    94    1
    13    98    96   ar
    14    77    76    2
    15    52    54    1
    16    85    90   am
    17    85    84    1
    18    38    39    2
    19    38    37    1
    20    94    95    1
    21    40    37    1
    22    40    41    1
    23    84    83    1
    24    84    87    1
    25    45    44    1
    26    42    41    1
    27    42    43    1
    28    76    83   am
    29    76    75    1
    30    37    36    1
    31    96    95    1
    32    96    97   ar
    33    89    87    1
    34    73    72    2
    35    44    43    2
    36    44    46    1
    37    87    88    1
    38    75    78    1
    39    75    74    1
    40    72    74   am
    41    72    71    1
    42    36    29   am
    43    78    79    1
    44    30    29    2
    45    14    15    1
    46    14    13    1
    47    29    28    1
    48    15     9    1
    49    71    70    1
    50    79    80    1
    51    13    10    1
    52    34    35    1
    53    34    33    1
    54    32    33    1
    55    32    31    1
    56   114   112   am
    57    80    81    1
    58     9    10    1
    59     9     3   am
    60    28    31    1
    61    28    27    1
    62   126   125    1
    63    68    67    2
    64    70    67   am
    65    10    11    1
    66     1     2    1
    67     2     3    1
    68     2     5    1
    69    27    18   am
    70     7     6    2
    71    67    66    1
    72     3     4    2
    73    81    82    1
    74   112   113    2
    75   112   111    1
    76   125   122    1
    77     6     5    1
    78     6     8   am
    79    11    16   am
    80    11    12    2
    81    16    17    1
    82    18    17    1
    83    18    19    2
    84    69    66    1
    85   111   108    1
    86   122   121    1
    87   122   123    1
    88   110   109    2
    89    66    65    1
    90    17    20    1
    91   121   117   am
    92    65    63   am
    93   123   124    2
    94   109   108    1
    95   109   115   am
    96   106   104   am
    97   108   107    1
    98    64    63    2
    99   117   118    2
   100   117   116    1
   101    63    62    1
   102    20    21    1
   103   105   104    2
   104    23    25   ar
   105    23    21   ar
   106   104   103    1
   107    25    26   ar
   108    21    22   ar
   109   115   116    1
   110   116   119    1
   111    62    61    1
   112    61    57   am
   113    26    24   ar
   114    22    24   ar
   115    57    56    1
   116    57    58    2
   117    56    55    1
   118    56    59    1
   119   103   100    1
   120   120   119    1
   121    60    59    1
   122   101   100    1
   123   101   102    2
   124   100    99    1
   125   130   129    2
   126   135   133   am
   127   129   128    1
   128   128   131    1
   129   128   127    1
   130   131   132    1
   131   132   133    1
   132   133   134    2
