@<TRIPOS>MOLECULE
tmp/1d0zA00.pdb
 135 134 0 0 0
SMALL
GASTEIGER

@<TRIPOS>ATOM
      1  N         39.6020   48.6990   20.2570 N.3   126  ASN126     -0.1226
      2  CA        40.5530   49.7930   20.3130 C.3   126  ASN126      0.1770
      3  C         41.8740   49.2410   20.7770 C.2   126  ASN126      0.2439
      4  O         41.9200   48.6080   21.7870 O.2   126  ASN126     -0.2733
      5  CB        40.1090   50.8600   21.3330 C.3   126  ASN126      0.1168
      6  CG        40.7430   52.1980   21.1020 C.2   126  ASN126      0.2627
      7  OD1       41.8280   52.3200   20.5420 O.2   126  ASN126     -0.2716
      8  ND2       40.0960   53.2140   21.5920 N.am  126  ASN126     -0.0877
      9  N         42.9210   49.5100   20.0400 N.am  127  PRO127     -0.2718
     10  CA        44.2660   49.0880   20.4160 C.3   127  PRO127      0.1535
     11  C         44.9500   50.0850   21.3280 C.2   127  PRO127      0.2599
     12  O         46.0350   49.8290   21.7900 O.2   127  PRO127     -0.2715
     13  CB        45.1110   49.2380   19.1320 C.3   127  PRO127      0.0310
     14  CG        44.3170   50.1790   18.2150 C.3   127  PRO127      0.0237
     15  CD        42.8560   50.1300   18.6510 C.3   127  PRO127      0.0939
     16  N         44.4220   51.2800   21.4060 N.am  128  PHE128     -0.1960
     17  CA        45.0240   52.3580   22.1950 C.3   128  PHE128      0.1771
     18  C         46.4100   52.7410   21.7680 C.2   128  PHE128      0.2619
     19  O         47.1830   53.0460   22.6240 O.2   128  PHE128     -0.2715
     20  CB        44.9650   52.2000   23.7610 C.3   128  PHE128      0.0574
     21  CG        43.5800   52.5760   24.2330 C.ar  128  PHE128     -0.0200
     22  CD1       42.7570   51.6100   24.8210 C.ar  128  PHE128     -0.0042
     23  CD2       43.1090   53.8560   23.9700 C.ar  128  PHE128     -0.0042
     24  CE1       41.4510   51.9480   25.1760 C.ar  128  PHE128     -0.0003
     25  CE2       41.8250   54.2350   24.3630 C.ar  128  PHE128     -0.0003
     26  CZ        41.0140   53.2550   24.9390 C.ar  128  PHE128     -0.0000
     27  N         46.6950   52.7320   20.4870 N.am  129  LYS129     -0.1963
     28  CA        47.9570   53.1460   19.8830 C.3   129  LYS129      0.1728
     29  C         47.6040   53.3500   18.4460 C.2   129  LYS129      0.2616
     30  O         46.5060   52.9880   18.0720 O.2   129  LYS129     -0.2715
     31  CB        49.1130   52.2120   20.0180 C.3   129  LYS129      0.0311
     32  CG        48.9490   50.9170   19.2560 C.3   129  LYS129      0.0038
     33  CD        49.9560   49.9000   19.7720 C.3   129  LYS129      0.0206
     34  CE        50.3160   48.8740   18.7490 C.3   129  LYS129      0.1093
     35  NZ        51.4950   48.0580   19.1070 N.3   129  LYS129     -0.1314
     36  N         48.4330   54.0170   17.6780 N.am  130  ARG130     -0.1977
     37  CA        48.1020   54.3370   16.2970 C.3   130  ARG130      0.1597
     38  C         48.7120   53.3700   15.2890 C.2   130  ARG130      0.2287
     39  O         49.9020   53.3870   15.0830 O.2   130  ARG130     -0.2864
     40  CB        48.5760   55.7630   16.0060 C.3   130  ARG130      0.0334
     41  CG        47.8650   56.8000   16.8580 C.3   130  ARG130      0.0492
     42  CD        46.3620   56.8890   16.5550 C.3   130  ARG130      0.2205
     43  NE        45.7010   57.8260   17.4600 N.pl3 130  ARG130     -0.0865
     44  CZ        44.3840   57.9010   17.6600 C.cat 130  ARG130      0.5346
     45  NH1       43.5350   57.1160   17.0060 N.pl3 130  ARG130      0.1354
     46  NH2       43.9050   58.7800   18.5640 N.pl3 130  ARG130      0.1354
     47  N         32.0210   54.3380   25.5290 N.3   180  SER180     -0.1202
     48  CA        32.7780   55.5530   25.4240 C.3   180  SER180      0.2020
     49  C         34.2670   55.1490   25.3990 C.2   180  SER180      0.2619
     50  O         34.7570   54.3080   26.2130 O.2   180  SER180     -0.2717
     51  CB        32.3960   56.4760   26.5850 C.3   180  SER180      0.2103
     52  OG        33.2540   57.5850   26.5480 O.3   180  SER180     -0.2182
     53  N         34.9830   55.6500   24.3970 N.am  181  GLY181     -0.1942
     54  CA        36.3850   55.2660   24.3010 C.3   181  GLY181      0.2014
     55  C         36.5970   54.1020   23.3970 C.2   181  GLY181      0.2639
     56  O         37.7230   53.8180   23.1050 O.2   181  GLY181     -0.2714
     57  N         35.5220   53.4730   22.8820 N.am  182  ALA182     -0.1963
     58  CA        35.6790   52.3090   22.0560 C.3   182  ALA182      0.1728
     59  C         36.2710   52.5450   20.6730 C.2   182  ALA182      0.2617
     60  O         36.8350   51.5710   20.1420 O.2   182  ALA182     -0.2715
     61  CB        34.3570   51.5440   21.9410 C.3   182  ALA182      0.0334
     62  N         36.1500   53.7720   20.1630 N.am  183  GLY183     -0.1940
     63  CA        36.6490   54.2380   18.8510 C.3   183  GLY183      0.2014
     64  C         35.5480   54.3740   17.8040 C.2   183  GLY183      0.2639
     65  O         35.8300   54.2710   16.6420 O.2   183  GLY183     -0.2714
     66  N         34.3020   54.6290   18.1860 N.am  184  LYS184     -0.1963
     67  CA        33.1540   54.8670   17.2620 C.3   184  LYS184      0.1728
     68  C         33.3860   56.0400   16.3550 C.2   184  LYS184      0.2617
     69  O         33.2350   55.9730   15.1280 O.2   184  LYS184     -0.2715
     70  CB        31.9110   55.2310   18.0670 C.3   184  LYS184      0.0311
     71  CG        31.4110   54.0020   18.8780 C.3   184  LYS184      0.0038
     72  CD        30.0900   54.2900   19.6300 C.3   184  LYS184      0.0206
     73  CE        30.2020   55.4610   20.6460 C.3   184  LYS184      0.1093
     74  NZ        31.2260   55.0970   21.7070 N.3   184  LYS184     -0.1314
     75  N         33.7750   57.1540   16.9860 N.am  185  THR185     -0.1937
     76  CA        34.0310   58.4300   16.2690 C.3   185  THR185      0.2028
     77  C         35.2180   58.2830   15.3330 C.2   185  THR185      0.2642
     78  O         35.2010   58.6260   14.1710 O.2   185  THR185     -0.2714
     79  CB        34.1480   59.6200   17.2260 C.3   185  THR185      0.1808
     80  OG1       32.9450   59.6940   17.9320 O.3   185  THR185     -0.2208
     81  CG2       34.2530   60.9250   16.4850 C.3   185  THR185      0.0379
     82  N         36.2530   57.6920   15.8490 N.am  186  GLU186     -0.1976
     83  CA        37.4260   57.4560   15.0350 C.3   186  GLU186      0.1602
     84  C         37.0440   56.6530   13.7760 C.2   186  GLU186      0.2287
     85  O         37.3890   56.9880   12.6580 O.2   186  GLU186     -0.2864
     86  CB        38.5010   56.7210   15.9150 C.3   186  GLU186      0.0415
     87  CG        39.1020   57.7320   16.9070 C.3   186  GLU186      0.1163
     88  CD        40.3770   57.3580   17.6360 C.2   186  GLU186      0.3649
     89  OE1       41.1030   58.2160   18.1500 O.co2 186  GLU186     -0.2457
     90  OE2       40.6210   56.0730   17.6750 O.co2 186  GLU186     -0.2457
     91  N         37.4220   59.2020   28.0240 N.3   228  ASN228     -0.1225
     92  CA        37.9210   59.5030   26.6920 C.3   228  ASN228      0.1785
     93  C         38.2650   60.9490   26.6770 C.2   228  ASN228      0.2616
     94  O         37.4780   61.7910   27.0820 O.2   228  ASN228     -0.2717
     95  CB        36.8060   59.0540   25.6600 C.3   228  ASN228      0.1169
     96  CG        37.1160   59.3520   24.1720 C.2   228  ASN228      0.2627
     97  OD1       38.1910   59.9230   23.8870 O.2   228  ASN228     -0.2716
     98  ND2       36.1620   59.0150   23.2240 N.am  228  ASN228     -0.0877
     99  N         39.4670   61.2380   26.2520 N.am  229  ASN229     -0.1719
    100  CA        39.9770   62.6420   26.1530 C.3   229  ASN229      0.2466
    101  C         39.2200   63.4550   25.0940 C.2   229  ASN229      0.2862
    102  O         39.2520   64.6990   25.0290 O.2   229  ASN229     -0.2689
    103  CB        41.5010   63.0100   26.5350 C.3   229  ASN229      0.1072
    104  CG        42.1010   61.6450   26.0520 C.3   229  ASN229      0.2129
    105  OD1       40.9570   61.6020   25.1070 O.3   229  ASN229     -0.3166
    106  ND2       43.3070   62.0070   26.1650 N.3   229  ASN229     -0.0999
    107  N         38.5570   62.7370   24.2350 N.am  230  ASN230     -0.1938
    108  CA        37.8260   63.4500   23.2250 C.3   230  ASN230      0.1820
    109  C         36.4760   62.8020   23.1090 C.2   230  ASN230      0.2622
    110  O         36.0030   62.4140   22.0550 O.2   230  ASN230     -0.2715
    111  CB        38.5990   63.4710   21.8990 C.3   230  ASN230      0.1195
    112  CG        37.8210   64.1440   20.7670 C.2   230  ASN230      0.2630
    113  OD1       37.2390   65.2070   20.9750 O.2   230  ASN230     -0.2716
    114  ND2       37.8160   63.5590   19.5580 N.am  230  ASN230     -0.0877
    115  N         35.8150   62.6890   24.2310 N.am  231  SER231     -0.1936
    116  CA        34.4790   62.1030   24.2270 C.3   231  SER231      0.2055
    117  C         33.3680   62.8720   23.4710 C.2   231  SER231      0.2643
    118  O         33.2360   64.0990   23.5870 O.2   231  SER231     -0.2714
    119  CB        34.0490   61.8050   25.6190 C.3   231  SER231      0.2130
    120  OG        32.7410   61.3020   25.6490 O.3   231  SER231     -0.2179
    121  N         32.5660   62.1200   22.6700 N.am  232  SER232     -0.1949
    122  CA        31.3940   62.6910   21.9660 C.3   232  SER232      0.1924
    123  C         30.2710   62.8040   22.9810 C.2   232  SER232      0.2314
    124  O         29.8560   61.7650   23.4470 O.2   232  SER232     -0.2863
    125  CB        30.8550   61.7260   20.8830 C.3   232  SER232      0.2116
    126  OG        31.9170   61.2050   20.0500 O.3   232  SER232     -0.2180
    127  N         42.0650   52.8650   29.2260 N.3   645  GLN645     -0.1245
    128  CA        42.7380   53.5620   28.1400 C.3   645  GLN645      0.1566
    129  C         44.2170   53.1010   27.8740 C.2   645  GLN645      0.2260
    130  O         45.0870   53.8630   27.4420 O.2   645  GLN645     -0.2867
    131  CB        42.6400   55.1160   28.2590 C.3   645  GLN645      0.0367
    132  CG        41.2020   55.6460   28.5580 C.3   645  GLN645      0.0905
    133  CD        41.0920   57.1590   28.5230 C.2   645  GLN645      0.2608
    134  OE1       40.6380   57.8050   29.4870 O.2   645  GLN645     -0.2717
    135  NE2       41.5060   57.7400   27.4140 N.am  645  GLN645     -0.0878
@<TRIPOS>BOND
     1    85    84    2
     2    84    83    1
     3    78    77    2
     4    83    82    1
     5    83    86    1
     6    39    38    2
     7    69    68    2
     8    38    37    1
     9    77    82   am
    10    77    76    1
    11    86    87    1
    12    40    37    1
    13    40    41    1
    14    76    75    1
    15    76    79    1
    16    37    36    1
    17    68    75   am
    18    68    67    1
    19    81    79    1
    20    42    41    1
    21    42    43    1
    22    65    64    2
    23    87    88    1
    24    45    44    1
    25    79    80    1
    26    67    70    1
    27    67    66    1
    28    43    44    2
    29    88    90   ar
    30    88    89   ar
    31    44    46    1
    32    36    29   am
    33    64    66   am
    34    64    63    1
    35    70    71    1
    36    30    29    2
    37    14    15    1
    38    14    13    1
    39    29    28    1
    40    15     9    1
    41    34    35    1
    42    34    33    1
    43    63    62    1
    44    71    72    1
    45    13    10    1
    46    32    33    1
    47    32    31    1
    48   114   112   am
    49    72    73    1
    50    28    31    1
    51    28    27    1
    52     9    10    1
    53     9     3   am
    54   126   125    1
    55    60    59    2
    56    62    59   am
    57     1     2    1
    58     2     3    1
    59     2     5    1
    60    10    11    1
    61    27    18   am
    62     7     6    2
    63    73    74    1
    64    59    58    1
    65   112   113    2
    66   112   111    1
    67     3     4    2
    68   125   122    1
    69     6     5    1
    70     6     8   am
    71    11    16   am
    72    11    12    2
    73    16    17    1
    74    18    17    1
    75    18    19    2
    76   111   108    1
    77    61    58    1
    78   122   121    1
    79   122   123    1
    80   110   109    2
    81    58    57    1
    82    17    20    1
    83   121   117   am
    84    57    55   am
    85   123   124    2
    86    56    55    2
    87   109   108    1
    88   109   115   am
    89    98    96   am
    90   108   107    1
    91    55    54    1
    92   117   118    2
    93   117   116    1
    94    20    21    1
    95    97    96    2
    96    23    21   ar
    97    23    25   ar
    98    96    95    1
    99   116   115    1
   100   116   119    1
   101    21    22   ar
   102   107   101   am
   103    54    53    1
   104    25    26   ar
   105    53    49   am
   106    22    24   ar
   107    26    24   ar
   108   102   101    2
   109   101   100    1
   110   105   104    1
   111   105   100    1
   112    49    48    1
   113    49    50    2
   114    48    47    1
   115    48    51    1
   116   119   120    1
   117    95    92    1
   118   104   106    1
   119   104   103    1
   120   100    99    1
   121   100   103    1
   122    99    93   am
   123    52    51    1
   124    93    92    1
   125    93    94    2
   126    92    91    1
   127   135   133   am
   128   130   129    2
   129   129   128    1
   130   128   131    1
   131   128   127    1
   132   131   132    1
   133   133   132    1
   134   133   134    2
