@<TRIPOS>MOLECULE
tmp/1d1aA00.pdb
 135 132 0 0 0
SMALL
GASTEIGER

@<TRIPOS>ATOM
      1  N         39.8220   48.7680   20.3150 N.3   126  ASN126     -0.1226
      2  CA        40.7480   49.8950   20.4260 C.3   126  ASN126      0.1770
      3  C         42.0980   49.3780   20.8630 C.2   126  ASN126      0.2439
      4  O         42.1650   48.5980   21.8050 O.2   126  ASN126     -0.2733
      5  CB        40.2570   50.9760   21.3910 C.3   126  ASN126      0.1168
      6  CG        40.9790   52.2650   21.1170 C.2   126  ASN126      0.2627
      7  OD1       42.0840   52.2120   20.5850 O.2   126  ASN126     -0.2716
      8  ND2       40.3690   53.4060   21.4390 N.am  126  ASN126     -0.0877
      9  N         43.1360   49.7470   20.1080 N.am  127  PRO127     -0.2718
     10  CA        44.4950   49.3100   20.3810 C.3   127  PRO127      0.1535
     11  C         45.1840   50.2290   21.3930 C.2   127  PRO127      0.2599
     12  O         46.1360   49.8520   22.0710 O.2   127  PRO127     -0.2715
     13  CB        45.2340   49.4450   19.0250 C.3   127  PRO127      0.0310
     14  CG        44.4380   50.4880   18.2440 C.3   127  PRO127      0.0237
     15  CD        43.0080   50.2970   18.7230 C.3   127  PRO127      0.0939
     16  N         44.6970   51.4660   21.4740 N.am  128  PHE128     -0.1960
     17  CA        45.2470   52.4510   22.3650 C.3   128  PHE128      0.1771
     18  C         46.6640   52.7050   22.0210 C.2   128  PHE128      0.2619
     19  O         47.5190   52.6970   22.8850 O.2   128  PHE128     -0.2715
     20  CB        45.1850   52.0250   23.8230 C.3   128  PHE128      0.0574
     21  CG        43.8500   52.4430   24.3060 C.ar  128  PHE128     -0.0200
     22  CD1       43.0050   51.5100   24.9130 C.ar  128  PHE128     -0.0042
     23  CD2       43.4500   53.7580   24.0880 C.ar  128  PHE128     -0.0042
     24  CE1       41.7280   51.8900   25.3230 C.ar  128  PHE128     -0.0003
     25  CE2       42.1730   54.1460   24.4930 C.ar  128  PHE128     -0.0003
     26  CZ        41.3290   53.2080   25.0990 C.ar  128  PHE128     -0.0000
     27  N         46.8530   52.9020   20.7450 N.am  129  LYS129     -0.1963
     28  CA        48.1270   53.1840   20.1830 C.3   129  LYS129      0.1728
     29  C         47.9210   53.2890   18.7180 C.2   129  LYS129      0.2616
     30  O         46.9840   52.7060   18.1900 O.2   129  LYS129     -0.2715
     31  CB        49.1590   52.1590   20.5210 C.3   129  LYS129      0.0311
     32  CG        49.2010   51.0400   19.5190 C.3   129  LYS129      0.0038
     33  CD        49.9210   49.8500   20.1090 C.3   129  LYS129      0.0206
     34  CE        50.2890   48.8020   19.0810 C.3   129  LYS129      0.1093
     35  NZ        51.6970   48.4030   19.1610 N.3   129  LYS129     -0.1314
     36  N         48.7790   54.0540   18.0870 N.am  130  ARG130     -0.1960
     37  CA        48.6210   54.2480   16.6760 C.3   130  ARG130      0.1772
     38  C         49.0930   53.0800   15.8300 C.2   130  ARG130      0.2619
     39  O         50.1210   52.4390   16.1000 O.2   130  ARG130     -0.2715
     40  CB        49.0180   55.6530   16.2150 C.3   130  ARG130      0.0603
     41  CG        48.2990   56.7660   17.0040 C.2   130  ARG130      0.0163
     42  CD        46.8840   57.1160   16.5110 C.2   130  ARG130      0.1886
     43  NE        46.1300   58.0730   17.3450 N.pl3 130  ARG130     -0.0578
     44  CZ        44.8050   58.2880   17.2550 C.cat 130  ARG130      0.5393
     45  NH1       44.0430   57.6420   16.3850 N.pl3 130  ARG130      0.1358
     46  NH2       44.2070   59.1690   18.0560 N.pl3 130  ARG130      0.1358
     47  N         48.2510   52.7770   14.8480 N.am  131  ILE131     -0.1977
     48  CA        48.4990   51.7440   13.8730 C.3   131  ILE131      0.1596
     49  C         48.2860   52.3930   12.5220 C.2   131  ILE131      0.2287
     50  O         47.2090   52.8780   12.2400 O.2   131  ILE131     -0.2864
     51  CB        47.6390   50.5310   13.9940 C.3   131  ILE131      0.0276
     52  CG1       47.8280   49.8780   15.3320 C.3   131  ILE131      0.0022
     53  CG2       48.0370   49.5560   12.8800 C.3   131  ILE131      0.0022
     54  CD1       46.9440   48.6350   15.3620 C.3   131  ILE131      0.0001
     55  N         32.2040   54.4290   25.3500 N.3   180  SER180     -0.1202
     56  CA        32.9300   55.6710   25.2640 C.3   180  SER180      0.2020
     57  C         34.3970   55.3190   25.1830 C.2   180  SER180      0.2619
     58  O         34.8930   54.5110   25.9730 O.2   180  SER180     -0.2717
     59  CB        32.6680   56.4780   26.5220 C.3   180  SER180      0.2103
     60  OG        33.2800   57.7540   26.4620 O.3   180  SER180     -0.2182
     61  N         35.0780   55.8870   24.2170 N.am  181  GLY181     -0.1942
     62  CA        36.4640   55.5520   24.1060 C.3   181  GLY181      0.2014
     63  C         36.6790   54.2710   23.3400 C.2   181  GLY181      0.2639
     64  O         37.8290   53.8890   23.1560 O.2   181  GLY181     -0.2714
     65  N         35.6140   53.6130   22.8560 N.am  182  ALA182     -0.1963
     66  CA        35.7910   52.3590   22.1050 C.3   182  ALA182      0.1728
     67  C         36.4090   52.5560   20.7120 C.2   182  ALA182      0.2617
     68  O         36.9880   51.6200   20.1970 O.2   182  ALA182     -0.2715
     69  CB        34.5320   51.4980   21.9920 C.3   182  ALA182      0.0334
     70  N         36.2580   53.7490   20.1130 N.am  183  GLY183     -0.1940
     71  CA        36.7600   54.0660   18.7880 C.3   183  GLY183      0.2014
     72  C         35.6520   54.3480   17.7720 C.2   183  GLY183      0.2639
     73  O         35.8710   54.2300   16.5720 O.2   183  GLY183     -0.2714
     74  N         34.4600   54.7360   18.2460 N.am  184  LYS184     -0.1963
     75  CA        33.3130   55.0000   17.3720 C.3   184  LYS184      0.1728
     76  C         33.5240   56.1170   16.3960 C.2   184  LYS184      0.2617
     77  O         33.2590   55.9720   15.1920 O.2   184  LYS184     -0.2715
     78  CB        32.0030   55.2920   18.1180 C.3   184  LYS184      0.0311
     79  CG        31.4840   54.1070   18.9350 C.3   184  LYS184      0.0038
     80  CD        30.2120   54.4180   19.7390 C.3   184  LYS184      0.0206
     81  CE        30.3700   55.5210   20.7590 C.3   184  LYS184      0.1093
     82  NZ        31.2140   55.0810   21.8660 N.3   184  LYS184     -0.1314
     83  N         33.9300   57.2480   16.9720 N.am  185  THR185     -0.1937
     84  CA        34.1510   58.4540   16.2330 C.3   185  THR185      0.2028
     85  C         35.3550   58.2800   15.3200 C.2   185  THR185      0.2642
     86  O         35.3540   58.6930   14.1650 O.2   185  THR185     -0.2714
     87  CB        34.2160   59.6870   17.1690 C.3   185  THR185      0.1808
     88  OG1       33.0780   59.7120   18.0090 O.3   185  THR185     -0.2208
     89  CG2       34.2550   60.9820   16.3790 C.3   185  THR185      0.0379
     90  N         36.3830   57.6370   15.8440 N.am  186  GLU186     -0.1976
     91  CA        37.5320   57.4150   15.0100 C.3   186  GLU186      0.1602
     92  C         37.0820   56.6770   13.7680 C.2   186  GLU186      0.2287
     93  O         37.2290   57.1980   12.6730 O.2   186  GLU186     -0.2864
     94  CB        38.6800   56.6810   15.7430 C.3   186  GLU186      0.0415
     95  CG        39.2470   57.4860   16.9400 C.3   186  GLU186      0.1163
     96  CD        40.1280   58.6730   16.6190 C.2   186  GLU186      0.3649
     97  OE1       40.9880   59.0650   17.3900 O.co2 186  GLU186     -0.2457
     98  OE2       39.8800   59.2450   15.4620 O.co2 186  GLU186     -0.2457
     99  N         37.5100   59.3170   27.9450 N.3   228  ASN228     -0.1240
    100  CA        38.0090   59.7240   26.6720 C.3   228  ASN228      0.1653
    101  C         38.3670   61.2090   26.7070 C.2   228  ASN228      0.2266
    102  O         37.6080   62.0590   27.1790 O.2   228  ASN228     -0.2867
    103  CB        36.8670   59.3890   25.6320 C.3   228  ASN228      0.1155
    104  CG        37.0990   59.5200   24.1220 C.2   228  ASN228      0.2627
    105  OD1       38.0190   60.1990   23.6310 O.2   228  ASN228     -0.2716
    106  ND2       36.2290   58.8730   23.3500 N.am  228  ASN228     -0.0877
    107  N         38.5620   62.9660   24.2130 N.3   230  ASN230     -0.1225
    108  CA        37.7730   63.6090   23.1720 C.3   230  ASN230      0.1785
    109  C         36.4230   62.9170   23.0430 C.2   230  ASN230      0.2598
    110  O         36.0120   62.4640   21.9730 O.2   230  ASN230     -0.2718
    111  CB        38.5670   63.6810   21.8410 C.3   230  ASN230      0.1169
    112  CG        37.8170   64.3380   20.6920 C.2   230  ASN230      0.2627
    113  OD1       37.4660   65.5350   20.7230 O.2   230  ASN230     -0.2716
    114  ND2       37.5490   63.5280   19.6700 N.am  230  ASN230     -0.0877
    115  N         35.7200   62.8360   24.1580 N.am  231  SER231     -0.1938
    116  CA        34.4220   62.1770   24.1850 C.3   231  SER231      0.2055
    117  C         33.3920   62.9280   23.3870 C.2   231  SER231      0.2643
    118  O         33.3990   64.1660   23.4700 O.2   231  SER231     -0.2714
    119  CB        33.8880   62.0920   25.5960 C.3   231  SER231      0.2130
    120  OG        32.8380   61.1500   25.5960 O.3   231  SER231     -0.2179
    121  N         32.5130   62.1910   22.6510 N.am  232  SER232     -0.1949
    122  CA        31.4190   62.8370   21.8940 C.3   232  SER232      0.1924
    123  C         30.2790   62.9830   22.9020 C.2   232  SER232      0.2314
    124  O         29.8620   61.9480   23.4430 O.2   232  SER232     -0.2863
    125  CB        30.8890   62.0130   20.7310 C.3   232  SER232      0.2116
    126  OG        31.9050   61.2820   20.0250 O.3   232  SER232     -0.2180
    127  N         42.5520   52.7980   29.3720 N.3   648  GLN648     -0.1245
    128  CA        43.1480   53.5520   28.2820 C.3   648  GLN648      0.1566
    129  C         44.6090   53.2200   27.9800 C.2   648  GLN648      0.2260
    130  O         45.3390   54.0860   27.4980 O.2   648  GLN648     -0.2867
    131  CB        43.0120   55.0670   28.3830 C.3   648  GLN648      0.0367
    132  CG        41.5650   55.4930   28.6450 C.3   648  GLN648      0.0905
    133  CD        41.4310   56.9920   28.6530 C.2   648  GLN648      0.2608
    134  OE1       40.8090   57.5940   29.5570 O.2   648  GLN648     -0.2717
    135  NE2       42.0320   57.6000   27.6400 N.am  648  GLN648     -0.0878
@<TRIPOS>BOND
     1    50    49    2
     2    49    48    1
     3    93    92    2
     4    53    51    1
     5    92    91    1
     6    48    51    1
     7    48    47    1
     8    51    52    1
     9    86    85    2
    10    47    38   am
    11    91    94    1
    12    91    90    1
    13    77    76    2
    14    85    90   am
    15    85    84    1
    16    52    54    1
    17    98    96   ar
    18    94    95    1
    19    38    39    2
    20    38    37    1
    21    40    37    1
    22    40    41    1
    23    84    83    1
    24    84    87    1
    25    89    87    1
    26    45    44    1
    27    76    83   am
    28    76    75    1
    29    42    41    2
    30    42    43    1
    31    73    72    2
    32    96    95    1
    33    96    97   ar
    34    37    36    1
    35    87    88    1
    36    44    43    2
    37    44    46    1
    38    75    78    1
    39    75    74    1
    40    72    74   am
    41    72    71    1
    42    36    29   am
    43    78    79    1
    44    30    29    2
    45    14    15    1
    46    14    13    1
    47    29    28    1
    48    15     9    1
    49    71    70    1
    50    79    80    1
    51    13    10    1
    52    34    35    1
    53    34    33    1
    54    32    33    1
    55    32    31    1
    56   114   112   am
    57    80    81    1
    58   126   125    1
    59     9    10    1
    60     9     3   am
    61    70    67   am
    62    28    31    1
    63    28    27    1
    64    68    67    2
    65     1     2    1
    66    10    11    1
    67     2     3    1
    68     2     5    1
    69     7     6    2
    70   112   113    2
    71   112   111    1
    72    67    66    1
    73   125   122    1
    74    27    18   am
    75    81    82    1
    76     3     4    2
    77     6     5    1
    78     6     8   am
    79    11    16   am
    80    11    12    2
    81    16    17    1
    82   111   108    1
    83   122   121    1
    84   122   123    1
    85   110   109    2
    86    69    66    1
    87    18    17    1
    88    18    19    2
    89    66    65    1
    90    17    20    1
    91   121   117   am
    92    65    63   am
    93   123   124    2
    94   109   108    1
    95   109   115   am
    96    64    63    2
    97   108   107    1
    98    63    62    1
    99   106   104   am
   100   117   118    2
   101   117   116    1
   102   105   104    2
   103    20    21    1
   104    23    21   ar
   105    23    25   ar
   106    62    61    1
   107   104   103    1
   108   115   116    1
   109   116   119    1
   110    61    57   am
   111    21    22   ar
   112    25    26   ar
   113    22    24   ar
   114    26    24   ar
   115    57    56    1
   116    57    58    2
   117    56    55    1
   118    56    59    1
   119   120   119    1
   120   103   100    1
   121    60    59    1
   122   100   101    1
   123   100    99    1
   124   101   102    2
   125   130   129    2
   126   135   133   am
   127   129   128    1
   128   128   131    1
   129   128   127    1
   130   131   132    1
   131   132   133    1
   132   133   134    2
