@<TRIPOS>MOLECULE
tmp/1d1bA00.pdb
 147 144 0 0 0
SMALL
GASTEIGER

@<TRIPOS>ATOM
      1  N         39.6820   48.8480   20.3190 N.3   126  ASN126     -0.1226
      2  CA        40.6390   49.9540   20.4260 C.3   126  ASN126      0.1770
      3  C         42.0310   49.4880   20.8090 C.2   126  ASN126      0.2439
      4  O         42.1980   48.8830   21.8660 O.2   126  ASN126     -0.2733
      5  CB        40.1850   51.0720   21.4070 C.3   126  ASN126      0.1168
      6  CG        40.8220   52.4350   21.1590 C.2   126  ASN126      0.2627
      7  OD1       41.9270   52.5780   20.5930 O.2   126  ASN126     -0.2716
      8  ND2       40.0940   53.4600   21.5890 N.am  126  ASN126     -0.0877
      9  N         43.0130   49.7540   19.9570 N.am  127  PRO127     -0.2718
     10  CA        44.3570   49.3340   20.2820 C.3   127  PRO127      0.1535
     11  C         45.0280   50.2700   21.3180 C.2   127  PRO127      0.2599
     12  O         46.0460   49.9650   21.9390 O.2   127  PRO127     -0.2715
     13  CB        45.1600   49.5480   18.9590 C.3   127  PRO127      0.0310
     14  CG        44.3880   50.6130   18.2080 C.3   127  PRO127      0.0237
     15  CD        42.9310   50.4230   18.6130 C.3   127  PRO127      0.0939
     16  N         44.5060   51.4450   21.4410 N.am  128  PHE128     -0.1960
     17  CA        45.0560   52.4730   22.3070 C.3   128  PHE128      0.1771
     18  C         46.4310   52.8200   21.9180 C.2   128  PHE128      0.2619
     19  O         47.2150   53.0210   22.7960 O.2   128  PHE128     -0.2715
     20  CB        44.9630   52.3300   23.8580 C.3   128  PHE128      0.0574
     21  CG        43.5680   52.6640   24.3770 C.ar  128  PHE128     -0.0200
     22  CD1       42.8450   51.7250   25.1070 C.ar  128  PHE128     -0.0042
     23  CD2       43.0200   53.9080   24.1160 C.ar  128  PHE128     -0.0042
     24  CE1       41.5510   51.9970   25.5410 C.ar  128  PHE128     -0.0003
     25  CE2       41.7260   54.2010   24.5370 C.ar  128  PHE128     -0.0003
     26  CZ        41.0000   53.2340   25.2270 C.ar  128  PHE128     -0.0000
     27  N         46.6690   52.8890   20.6260 N.am  129  LYS129     -0.1963
     28  CA        47.9340   53.2900   20.0710 C.3   129  LYS129      0.1728
     29  C         47.7490   53.3830   18.6010 C.2   129  LYS129      0.2616
     30  O         46.8320   52.8120   18.0570 O.2   129  LYS129     -0.2715
     31  CB        49.1040   52.4410   20.4080 C.3   129  LYS129      0.0311
     32  CG        49.0120   51.1630   19.6250 C.3   129  LYS129      0.0038
     33  CD        50.3210   50.4040   19.5990 C.3   129  LYS129      0.0206
     34  CE        50.1640   49.0530   18.9820 C.3   129  LYS129      0.1093
     35  NZ        51.4010   48.2470   19.0730 N.3   129  LYS129     -0.1314
     36  N         48.5910   54.1570   17.9740 N.am  130  ARG130     -0.1977
     37  CA        48.4190   54.3950   16.5530 C.3   130  ARG130      0.1597
     38  C         48.9890   53.2840   15.7390 C.2   130  ARG130      0.2287
     39  O         50.0790   52.8140   16.0540 O.2   130  ARG130     -0.2864
     40  CB        48.9250   55.7670   16.0770 C.3   130  ARG130      0.0334
     41  CG        48.1090   56.9710   16.6060 C.3   130  ARG130      0.0492
     42  CD        46.5690   56.8910   16.4000 C.3   130  ARG130      0.2205
     43  NE        45.8100   57.9980   17.0330 N.pl3 130  ARG130     -0.0865
     44  CZ        44.4610   58.1930   17.0590 C.cat 130  ARG130      0.5346
     45  NH1       43.9400   59.2480   17.6830 N.pl3 130  ARG130      0.1354
     46  NH2       43.6060   57.3440   16.4630 N.pl3 130  ARG130      0.1354
     47  N         30.8640   51.5130   23.9080 N.3   179  GLU179     -0.1231
     48  CA        31.1770   52.4230   25.0330 C.3   179  GLU179      0.1699
     49  C         32.0680   53.5590   24.6410 C.2   179  GLU179      0.2593
     50  O         32.7840   53.5690   23.6370 O.2   179  GLU179     -0.2718
     51  CB        32.0390   51.6300   26.0680 C.3   179  GLU179      0.0402
     52  CG        31.3700   50.3460   26.4930 C.3   179  GLU179      0.1161
     53  CD        31.7700   49.8890   27.8840 C.2   179  GLU179      0.3649
     54  OE1       31.4790   48.7780   28.3140 O.co2 179  GLU179     -0.2457
     55  OE2       32.4360   50.8030   28.5720 O.co2 179  GLU179     -0.2457
     56  N         32.0700   54.5140   25.5240 N.am  180  SER180     -0.1938
     57  CA        32.8530   55.7010   25.3850 C.3   180  SER180      0.2055
     58  C         34.3510   55.3010   25.3380 C.2   180  SER180      0.2644
     59  O         34.7880   54.4470   26.1770 O.2   180  SER180     -0.2714
     60  CB        32.4920   56.6810   26.4710 C.3   180  SER180      0.2130
     61  OG        33.3540   57.8280   26.3950 O.3   180  SER180     -0.2179
     62  N         35.1020   55.8730   24.3520 N.am  181  GLY181     -0.1939
     63  CA        36.5170   55.5590   24.1690 C.3   181  GLY181      0.2014
     64  C         36.7270   54.2850   23.3960 C.2   181  GLY181      0.2639
     65  O         37.8570   53.8980   23.1930 O.2   181  GLY181     -0.2714
     66  N         35.6430   53.6460   22.9010 N.am  182  ALA182     -0.1963
     67  CA        35.7760   52.4400   22.0870 C.3   182  ALA182      0.1728
     68  C         36.3740   52.6930   20.6560 C.2   182  ALA182      0.2617
     69  O         36.8600   51.7660   20.0590 O.2   182  ALA182     -0.2715
     70  CB        34.4760   51.5960   21.9810 C.3   182  ALA182      0.0334
     71  N         36.3090   53.9140   20.1250 N.am  183  GLY183     -0.1940
     72  CA        36.7480   54.3300   18.7810 C.3   183  GLY183      0.2014
     73  C         35.5970   54.5520   17.7800 C.2   183  GLY183      0.2639
     74  O         35.7890   54.4400   16.5930 O.2   183  GLY183     -0.2714
     75  N         34.3840   54.8950   18.2130 N.am  184  LYS184     -0.1963
     76  CA        33.2040   55.0680   17.3120 C.3   184  LYS184      0.1728
     77  C         33.4130   56.2360   16.4230 C.2   184  LYS184      0.2617
     78  O         33.1450   56.1950   15.2310 O.2   184  LYS184     -0.2715
     79  CB        31.9660   55.4070   18.1390 C.3   184  LYS184      0.0311
     80  CG        31.4670   54.1630   18.9280 C.3   184  LYS184      0.0038
     81  CD        30.1440   54.5400   19.6380 C.3   184  LYS184      0.0206
     82  CE        30.2210   55.6610   20.6910 C.3   184  LYS184      0.1093
     83  NZ        31.0300   55.1930   21.8290 N.3   184  LYS184     -0.1314
     84  N         33.8540   57.2990   17.0550 N.am  185  THR185     -0.1937
     85  CA        34.0680   58.5420   16.3580 C.3   185  THR185      0.2028
     86  C         35.2410   58.4740   15.3840 C.2   185  THR185      0.2642
     87  O         35.2180   58.9880   14.2760 O.2   185  THR185     -0.2714
     88  CB        34.1750   59.6840   17.3600 C.3   185  THR185      0.1808
     89  OG1       32.9130   59.8440   17.9460 O.3   185  THR185     -0.2208
     90  CG2       34.5670   60.9300   16.6080 C.3   185  THR185      0.0379
     91  N         36.2700   57.7990   15.8400 N.am  186  GLU186     -0.1976
     92  CA        37.4630   57.5660   15.0520 C.3   186  GLU186      0.1602
     93  C         37.0860   56.8420   13.7780 C.2   186  GLU186      0.2287
     94  O         37.4580   57.2340   12.7090 O.2   186  GLU186     -0.2864
     95  CB        38.4480   56.6660   15.8390 C.3   186  GLU186      0.0415
     96  CG        39.2920   57.5430   16.8010 C.3   186  GLU186      0.1163
     97  CD        39.7060   58.8990   16.2360 C.2   186  GLU186      0.3649
     98  OE1       39.3710   59.9450   16.7550 O.co2 186  GLU186     -0.2457
     99  OE2       40.4640   58.8360   15.1420 O.co2 186  GLU186     -0.2457
    100  N         36.6790   58.8020   30.6420 N.3   226  ARG226     -0.1231
    101  CA        36.8650   57.6570   29.7690 C.3   226  ARG226      0.1694
    102  C         37.4310   57.9980   28.3580 C.2   226  ARG226      0.2592
    103  O         37.8640   57.0570   27.6370 O.2   226  ARG226     -0.2718
    104  CB        35.5520   56.9180   29.6200 C.3   226  ARG226      0.0321
    105  CG        34.8110   56.7470   30.9430 C.3   226  ARG226      0.0489
    106  CD        33.4640   56.0320   30.7380 C.3   226  ARG226      0.2205
    107  NE        32.8330   55.5700   31.9740 N.pl3 226  ARG226     -0.0865
    108  CZ        32.2420   56.3960   32.8520 C.cat 226  ARG226      0.5346
    109  NH1       32.1660   57.7150   32.6400 N.pl3 226  ARG226      0.1354
    110  NH2       31.7050   55.9010   33.9700 N.pl3 226  ARG226      0.1354
    111  N         37.5000   59.3110   28.0480 N.am  227  ASN227     -0.1974
    112  CA        37.8980   59.7700   26.7710 C.3   227  ASN227      0.1688
    113  C         38.2040   61.2430   26.7120 C.2   227  ASN227      0.2292
    114  O         37.4490   62.1390   27.0840 O.2   227  ASN227     -0.2864
    115  CB        36.8560   59.2170   25.7120 C.3   227  ASN227      0.1181
    116  CG        37.1460   59.5650   24.2680 C.2   227  ASN227      0.2629
    117  OD1       38.2000   60.1820   23.9520 O.2   227  ASN227     -0.2716
    118  ND2       36.1760   59.1960   23.3860 N.am  227  ASN227     -0.0877
    119  N         38.4880   62.8810   24.1980 N.3   229  ASN229     -0.1225
    120  CA        37.7160   63.5730   23.1960 C.3   229  ASN229      0.1785
    121  C         36.3390   62.9420   23.0900 C.2   229  ASN229      0.2598
    122  O         35.9230   62.4930   22.0460 O.2   229  ASN229     -0.2718
    123  CB        38.5310   63.7230   21.8640 C.3   229  ASN229      0.1169
    124  CG        37.7770   64.4160   20.7220 C.2   229  ASN229      0.2627
    125  OD1       37.3240   65.5720   20.8520 O.2   229  ASN229     -0.2716
    126  ND2       37.6310   63.6950   19.5880 N.am  229  ASN229     -0.0877
    127  N         35.6100   62.9460   24.1980 N.am  230  SER230     -0.1938
    128  CA        34.3040   62.2840   24.2610 C.3   230  SER230      0.2055
    129  C         33.2070   62.9470   23.4680 C.2   230  SER230      0.2640
    130  O         33.0700   64.1400   23.5350 O.2   230  SER230     -0.2714
    131  CB        33.8240   62.0800   25.6600 C.3   230  SER230      0.2130
    132  OG        32.6380   61.2980   25.5730 O.3   230  SER230     -0.2179
    133  N         32.4160   62.1960   22.7170 N.am  231  SER231     -0.2003
    134  CA        31.3770   62.9220   21.9670 C.3   231  SER231      0.1610
    135  C         30.2780   63.0680   22.9460 C.3   231  SER231      0.2063
    136  O         29.8810   62.0230   23.3940 O.3   231  SER231     -0.2184
    137  CB        30.7990   62.0320   20.8820 C.3   231  SER231      0.2063
    138  OG        31.8600   61.4240   20.0820 O.3   231  SER231     -0.2184
    139  N         42.3290   52.9040   29.3420 N.3   642  GLN642     -0.1245
    140  CA        43.0030   53.5960   28.2580 C.3   642  GLN642      0.1566
    141  C         44.4540   53.1750   28.0320 C.2   642  GLN642      0.2260
    142  O         45.2740   53.9800   27.6110 O.2   642  GLN642     -0.2867
    143  CB        42.9320   55.1440   28.3090 C.3   642  GLN642      0.0367
    144  CG        41.4850   55.6760   28.4180 C.3   642  GLN642      0.0905
    145  CD        41.3810   57.1670   28.4160 C.2   642  GLN642      0.2608
    146  OE1       40.6690   57.7700   29.2540 O.2   642  GLN642     -0.2717
    147  NE2       42.0730   57.7780   27.4800 N.am  642  GLN642     -0.0878
@<TRIPOS>BOND
     1    94    93    2
     2    93    92    1
     3    87    86    2
     4    92    95    1
     5    92    91    1
     6    99    97   ar
     7    78    77    2
     8    86    91   am
     9    86    85    1
    10    38    39    2
    11    38    37    1
    12    95    96    1
    13    40    37    1
    14    40    41    1
    15    97    98   ar
    16    97    96    1
    17    85    84    1
    18    85    88    1
    19    42    41    1
    20    42    43    1
    21    77    84   am
    22    77    76    1
    23    46    44    1
    24    37    36    1
    25    74    73    2
    26    90    88    1
    27    43    44    2
    28    44    45    1
    29    76    79    1
    30    76    75    1
    31    88    89    1
    32    73    75   am
    33    73    72    1
    34    36    29   am
    35    30    29    2
    36    79    80    1
    37    14    15    1
    38    14    13    1
    39    29    28    1
    40    15     9    1
    41    72    71    1
    42    80    81    1
    43    13    10    1
    44    34    35    1
    45    34    33    1
    46   126   124   am
    47    33    32    1
    48    32    31    1
    49    81    82    1
    50     9    10    1
    51     9     3   am
    52    69    68    2
    53    28    31    1
    54    28    27    1
    55   138   137    1
    56    71    68   am
    57    10    11    1
    58     1     2    1
    59     2     3    1
    60     2     5    1
    61     7     6    2
    62    27    18   am
    63    68    67    1
    64    82    83    1
    65   124   125    2
    66   124   123    1
    67     3     4    2
    68   137   134    1
    69     6     5    1
    70     6     8   am
    71    11    16   am
    72    11    12    2
    73    16    17    1
    74   123   120    1
    75    18    17    1
    76    18    19    2
    77   134   133    1
    78   134   135    1
    79    70    67    1
    80   122   121    2
    81    67    66    1
    82    17    20    1
    83   133   129   am
    84    66    64   am
    85   135   136    1
    86   121   120    1
    87   121   127   am
    88    65    64    2
    89   120   119    1
    90   118   116   am
    91    64    63    1
    92   129   130    2
    93   129   128    1
    94    50    49    2
    95    20    21    1
    96    47    48    1
    97   117   116    2
    98    23    21   ar
    99    23    25   ar
   100    63    62    1
   101   127   128    1
   102   128   131    1
   103   116   115    1
   104    62    58   am
   105    21    22   ar
   106    25    26   ar
   107    49    48    1
   108    49    56   am
   109    48    51    1
   110    22    24   ar
   111    26    24   ar
   112    58    57    1
   113    58    59    2
   114    57    56    1
   115    57    60    1
   116   132   131    1
   117   115   112    1
   118    51    52    1
   119    61    60    1
   120    52    53    1
   121   113   112    1
   122   113   114    2
   123   112   111    1
   124   147   145   am
   125   142   141    2
   126   103   102    2
   127    53    54   ar
   128    53    55   ar
   129   141   140    1
   130   111   102   am
   131   140   143    1
   132   140   139    1
   133   143   144    1
   134   102   101    1
   135   145   144    1
   136   145   146    2
   137   104   101    1
   138   104   105    1
   139   101   100    1
   140   106   105    1
   141   106   107    1
   142   107   108    2
   143   109   108    1
   144   108   110    1
