@<TRIPOS>MOLECULE
tmp/1d1cA00.pdb
 135 133 0 0 0
SMALL
GASTEIGER

@<TRIPOS>ATOM
      1  N         39.6140   48.7970   20.3520 N.3   126  ASN126     -0.1226
      2  CA        40.5230   49.9290   20.4000 C.3   126  ASN126      0.1770
      3  C         41.8970   49.4840   20.8110 C.2   126  ASN126      0.2439
      4  O         42.0580   48.8790   21.8740 O.2   126  ASN126     -0.2733
      5  CB        40.0620   50.9790   21.3930 C.3   126  ASN126      0.1168
      6  CG        40.6940   52.3580   21.2040 C.2   126  ASN126      0.2627
      7  OD1       41.8090   52.5460   20.6770 O.2   126  ASN126     -0.2716
      8  ND2       39.9580   53.3650   21.6420 N.am  126  ASN126     -0.0877
      9  N         42.8630   49.7920   19.9690 N.am  127  PRO127     -0.2718
     10  CA        44.2180   49.4110   20.2640 C.3   127  PRO127      0.1535
     11  C         44.8110   50.2880   21.3460 C.2   127  PRO127      0.2599
     12  O         45.6490   49.8180   22.0800 O.2   127  PRO127     -0.2715
     13  CB        45.0030   49.6820   18.9790 C.3   127  PRO127      0.0310
     14  CG        44.1810   50.7010   18.1780 C.3   127  PRO127      0.0237
     15  CD        42.7690   50.5830   18.7020 C.3   127  PRO127      0.0939
     16  N         44.3680   51.5560   21.4170 N.am  128  PHE128     -0.1960
     17  CA        44.8980   52.5190   22.3870 C.3   128  PHE128      0.1771
     18  C         46.3190   52.8980   22.0590 C.2   128  PHE128      0.2619
     19  O         47.1040   53.1210   22.9660 O.2   128  PHE128     -0.2715
     20  CB        44.8690   52.1130   23.8840 C.3   128  PHE128      0.0574
     21  CG        43.5010   52.2550   24.4920 C.ar  128  PHE128     -0.0200
     22  CD1       42.9540   51.1820   25.1940 C.ar  128  PHE128     -0.0042
     23  CD2       42.7280   53.3960   24.2800 C.ar  128  PHE128     -0.0042
     24  CE1       41.6650   51.2380   25.7200 C.ar  128  PHE128     -0.0003
     25  CE2       41.4320   53.4700   24.7910 C.ar  128  PHE128     -0.0003
     26  CZ        40.9020   52.3790   25.4830 C.ar  128  PHE128     -0.0000
     27  N         46.6270   52.9540   20.7750 N.am  129  LYS129     -0.1963
     28  CA        47.9080   53.3600   20.2330 C.3   129  LYS129      0.1728
     29  C         47.6880   53.5130   18.7650 C.2   129  LYS129      0.2616
     30  O         46.5820   53.2440   18.2890 O.2   129  LYS129     -0.2715
     31  CB        49.0260   52.3780   20.4490 C.3   129  LYS129      0.0311
     32  CG        48.9770   51.2220   19.4610 C.3   129  LYS129      0.0038
     33  CD        50.0900   50.2320   19.7600 C.3   129  LYS129      0.0206
     34  CE        50.0170   48.9090   19.0440 C.3   129  LYS129      0.1093
     35  NZ        51.3610   48.3150   18.8850 N.3   129  LYS129     -0.1314
     36  N         48.7300   53.9640   18.0520 N.am  130  ARG130     -0.1977
     37  CA        48.5950   54.1550   16.6350 C.3   130  ARG130      0.1597
     38  C         49.0230   52.9680   15.7840 C.2   130  ARG130      0.2287
     39  O         49.9930   52.2620   16.0560 O.2   130  ARG130     -0.2864
     40  CB        49.0730   55.5170   16.1530 C.3   130  ARG130      0.0334
     41  CG        48.2590   56.6350   16.8180 C.3   130  ARG130      0.0492
     42  CD        47.4320   57.4310   15.8240 C.3   130  ARG130      0.2205
     43  NE        46.2090   58.0500   16.3640 N.pl3 130  ARG130     -0.0865
     44  CZ        44.9640   57.5590   16.1970 C.cat 130  ARG130      0.5346
     45  NH1       44.7470   56.4130   15.5460 N.pl3 130  ARG130      0.1354
     46  NH2       43.8990   58.2210   16.6890 N.pl3 130  ARG130      0.1354
     47  N         31.9600   54.4000   25.5280 N.3   180  SER180     -0.1202
     48  CA        32.7310   55.6020   25.4440 C.3   180  SER180      0.2020
     49  C         34.1960   55.2860   25.3410 C.2   180  SER180      0.2619
     50  O         34.7220   54.5030   26.1040 O.2   180  SER180     -0.2717
     51  CB        32.3700   56.5780   26.5560 C.3   180  SER180      0.2103
     52  OG        33.2920   57.6490   26.5730 O.3   180  SER180     -0.2182
     53  N         34.8330   55.8590   24.3430 N.am  181  GLY181     -0.1942
     54  CA        36.2370   55.6080   24.1460 C.3   181  GLY181      0.2014
     55  C         36.5350   54.3720   23.3340 C.2   181  GLY181      0.2639
     56  O         37.7230   54.1110   23.0930 O.2   181  GLY181     -0.2714
     57  N         35.4630   53.6550   22.9220 N.am  182  ALA182     -0.1963
     58  CA        35.5060   52.4300   22.1220 C.3   182  ALA182      0.1728
     59  C         36.1440   52.6620   20.7300 C.2   182  ALA182      0.2617
     60  O         36.8140   51.7710   20.2090 O.2   182  ALA182     -0.2715
     61  CB        34.1250   51.7510   22.0540 C.3   182  ALA182      0.0334
     62  N         35.9480   53.8800   20.1640 N.am  183  GLY183     -0.1940
     63  CA        36.5060   54.2960   18.8560 C.3   183  GLY183      0.2014
     64  C         35.4520   54.5160   17.7520 C.2   183  GLY183      0.2639
     65  O         35.7830   54.4580   16.5650 O.2   183  GLY183     -0.2714
     66  N         34.1740   54.7420   18.1320 N.am  184  LYS184     -0.1963
     67  CA        33.0500   54.9690   17.1960 C.3   184  LYS184      0.1728
     68  C         33.2830   56.1230   16.2420 C.2   184  LYS184      0.2617
     69  O         33.0660   56.0190   15.0470 O.2   184  LYS184     -0.2715
     70  CB        31.7490   55.3230   17.9100 C.3   184  LYS184      0.0311
     71  CG        31.2980   54.2400   18.9380 C.3   184  LYS184      0.0038
     72  CD        29.9790   54.6310   19.6020 C.3   184  LYS184      0.0206
     73  CE        30.1680   55.7280   20.6640 C.3   184  LYS184      0.1093
     74  NZ        31.1090   55.2910   21.7450 N.3   184  LYS184     -0.1314
     75  N         33.6700   57.2490   16.8220 N.am  185  THR185     -0.1937
     76  CA        33.9050   58.4890   16.1150 C.3   185  THR185      0.2028
     77  C         35.1110   58.3830   15.1830 C.2   185  THR185      0.2642
     78  O         35.0710   58.7390   14.0080 O.2   185  THR185     -0.2714
     79  CB        33.9710   59.6370   17.1280 C.3   185  THR185      0.1808
     80  OG1       32.7360   59.7450   17.8130 O.3   185  THR185     -0.2208
     81  CG2       34.3180   60.9500   16.4890 C.3   185  THR185      0.0379
     82  N         36.1890   57.8390   15.6950 N.am  186  GLU186     -0.1976
     83  CA        37.3620   57.6240   14.8800 C.3   186  GLU186      0.1602
     84  C         36.9480   56.7750   13.6610 C.2   186  GLU186      0.2287
     85  O         37.2790   57.0660   12.5290 O.2   186  GLU186     -0.2864
     86  CB        38.4320   56.8600   15.7110 C.3   186  GLU186      0.0415
     87  CG        39.2430   57.7760   16.6470 C.3   186  GLU186      0.1163
     88  CD        39.4790   59.1240   16.0440 C.2   186  GLU186      0.3649
     89  OE1       39.1340   60.1780   16.5420 O.co2 186  GLU186     -0.2457
     90  OE2       40.0920   59.0310   14.9020 O.co2 186  GLU186     -0.2457
     91  N         37.3590   59.2060   28.0420 N.3   229  ASN229     -0.1225
     92  CA        37.8410   59.6310   26.7430 C.3   229  ASN229      0.1785
     93  C         38.1750   61.1120   26.7190 C.2   229  ASN229      0.2597
     94  O         37.3680   61.9920   27.0300 O.2   229  ASN229     -0.2718
     95  CB        36.7570   59.3460   25.6380 C.3   229  ASN229      0.1169
     96  CG        37.0970   59.6120   24.1610 C.2   229  ASN229      0.2627
     97  OD1       38.1940   60.1010   23.8050 O.2   229  ASN229     -0.2716
     98  ND2       36.1360   59.2910   23.2780 N.am  229  ASN229     -0.0877
     99  N         39.3730   61.3870   26.2850 N.am  230  ASN230     -0.1960
    100  CA        39.8450   62.7380   26.1950 C.3   230  ASN230      0.1819
    101  C         39.1120   63.5140   25.1790 C.2   230  ASN230      0.2621
    102  O         39.1250   64.7390   25.2470 O.2   230  ASN230     -0.2715
    103  CB        41.3250   62.8520   25.8700 C.3   230  ASN230      0.1195
    104  CG        42.1760   62.3940   27.0250 C.2   230  ASN230      0.2630
    105  OD1       43.3700   62.2120   26.8600 O.2   230  ASN230     -0.2716
    106  ND2       41.5630   62.1950   28.1900 N.am  230  ASN230     -0.0877
    107  N         38.5150   62.8050   24.2390 N.am  231  ASN231     -0.1958
    108  CA        37.7910   63.4620   23.1880 C.3   231  ASN231      0.1819
    109  C         36.4450   62.8210   22.9770 C.2   231  ASN231      0.2622
    110  O         36.0300   62.5060   21.8450 O.2   231  ASN231     -0.2715
    111  CB        38.6170   63.5750   21.8940 C.3   231  ASN231      0.1195
    112  CG        37.8660   64.2380   20.7610 C.2   231  ASN231      0.2630
    113  OD1       37.2550   65.3010   20.9350 O.2   231  ASN231     -0.2716
    114  ND2       37.8780   63.5990   19.5920 N.am  231  ASN231     -0.0877
    115  N         35.7460   62.6700   24.1010 N.am  232  SER232     -0.1936
    116  CA        34.4000   62.1000   24.1480 C.3   232  SER232      0.2055
    117  C         33.3370   62.8980   23.3970 C.2   232  SER232      0.2643
    118  O         33.3000   64.1140   23.4530 O.2   232  SER232     -0.2714
    119  CB        33.9180   61.9570   25.5660 C.3   232  SER232      0.2130
    120  OG        32.6330   61.3830   25.5650 O.3   232  SER232     -0.2179
    121  N         32.4650   62.1900   22.6770 N.am  233  SER233     -0.1949
    122  CA        31.3920   62.8350   21.9780 C.3   233  SER233      0.1924
    123  C         30.2760   62.9670   22.9590 C.2   233  SER233      0.2314
    124  O         29.8630   61.9480   23.4820 O.2   233  SER233     -0.2863
    125  CB        30.9030   61.9170   20.8910 C.3   233  SER233      0.2116
    126  OG        31.9700   61.6630   19.9970 O.3   233  SER233     -0.2180
    127  N         42.3390   52.9980   29.2630 N.3   647  GLN647     -0.1245
    128  CA        42.9930   53.6680   28.1420 C.3   647  GLN647      0.1566
    129  C         44.4770   53.2330   27.9040 C.2   647  GLN647      0.2260
    130  O         45.3250   54.0350   27.4760 O.2   647  GLN647     -0.2867
    131  CB        42.9240   55.2200   28.2630 C.3   647  GLN647      0.0367
    132  CG        41.5380   55.7710   28.6920 C.3   647  GLN647      0.0905
    133  CD        41.4840   57.2680   28.5070 C.2   647  GLN647      0.2608
    134  OE1       40.7210   57.9780   29.1640 O.2   647  GLN647     -0.2717
    135  NE2       42.3420   57.7520   27.6350 N.am  647  GLN647     -0.0878
@<TRIPOS>BOND
     1    85    84    2
     2    84    83    1
     3    78    77    2
     4    83    82    1
     5    83    86    1
     6    90    88   ar
     7    69    68    2
     8    77    82   am
     9    77    76    1
    10    45    44    1
    11    86    87    1
    12    38    39    2
    13    38    37    1
    14    42    43    1
    15    42    41    1
    16    88    89   ar
    17    88    87    1
    18    76    75    1
    19    76    79    1
    20    40    37    1
    21    40    41    1
    22    44    43    2
    23    44    46    1
    24    68    75   am
    25    68    67    1
    26    81    79    1
    27    65    64    2
    28    37    36    1
    29    79    80    1
    30    67    70    1
    31    67    66    1
    32    64    66   am
    33    64    63    1
    34    70    71    1
    35    36    29   am
    36    14    15    1
    37    14    13    1
    38    30    29    2
    39    15     9    1
    40    29    28    1
    41    63    62    1
    42    35    34    1
    43    71    72    1
    44    13    10    1
    45    34    33    1
    46    32    33    1
    47    32    31    1
    48   114   112   am
    49    72    73    1
    50     9    10    1
    51     9     3   am
    52   126   125    1
    53    62    59   am
    54    60    59    2
    55    28    31    1
    56    28    27    1
    57    10    11    1
    58     1     2    1
    59     2     3    1
    60     2     5    1
    61    73    74    1
    62     7     6    2
    63    59    58    1
    64   112   113    2
    65   112   111    1
    66    27    18   am
    67     3     4    2
    68   125   122    1
    69     6     5    1
    70     6     8   am
    71    11    16   am
    72    11    12    2
    73    16    17    1
    74   110   109    2
    75   111   108    1
    76   122   121    1
    77   122   123    1
    78    61    58    1
    79    18    17    1
    80    18    19    2
    81    58    57    1
    82    17    20    1
    83   121   117   am
    84    57    55   am
    85   123   124    2
    86   109   108    1
    87   109   115   am
    88    56    55    2
    89   108   107    1
    90    98    96   am
    91    55    54    1
    92   117   118    2
    93   117   116    1
    94    97    96    2
    95    20    21    1
    96   115   116    1
    97    54    53    1
    98   116   119    1
    99    96    95    1
   100   107   101   am
   101    23    21   ar
   102    23    25   ar
   103    53    49   am
   104    21    22   ar
   105    25    26   ar
   106   101   102    2
   107   101   100    1
   108    22    24   ar
   109    49    48    1
   110    49    50    2
   111    48    47    1
   112    48    51    1
   113    26    24   ar
   114   120   119    1
   115    95    92    1
   116   103   100    1
   117   103   104    1
   118   100    99    1
   119    99    93   am
   120    51    52    1
   121    93    92    1
   122    93    94    2
   123    92    91    1
   124   105   104    2
   125   104   106   am
   126   130   129    2
   127   135   133   am
   128   129   128    1
   129   128   131    1
   130   128   127    1
   131   131   132    1
   132   133   132    1
   133   133   134    2
