@<TRIPOS>MOLECULE
tmp/1d1gA01.pdb
 196 187 0 0 0
SMALL
GASTEIGER

@<TRIPOS>ATOM
      1  N         10.8240   39.2920   54.2350 N.3     6  VAL6       -0.1231
      2  CA         9.8990   39.7150   53.1870 C.3     6  VAL6        0.1692
      3  C         10.7570   39.9240   51.9490 C.2     6  VAL6        0.2592
      4  O         11.6180   40.8060   51.9310 O.2     6  VAL6       -0.2718
      5  CB         9.2000   41.0480   53.5310 C.3     6  VAL6        0.0266
      6  CG1        8.1590   41.3530   52.4850 C.3     6  VAL6        0.0020
      7  CG2        8.5500   40.9660   54.9190 C.3     6  VAL6        0.0020
      8  N         10.5530   39.1090   50.9230 N.am    7  LEU7       -0.1966
      9  CA        11.3590   39.2640   49.7170 C.3     7  LEU7        0.1728
     10  C         10.6110   38.8670   48.4610 C.2     7  LEU7        0.2616
     11  O          9.6210   38.1090   48.5060 O.2     7  LEU7       -0.2715
     12  CB        12.6320   38.4040   49.8020 C.3     7  LEU7        0.0311
     13  CG        12.3340   36.8970   49.9250 C.3     7  LEU7        0.0022
     14  CD1       13.4130   36.0590   49.2510 C.3     7  LEU7        0.0001
     15  CD2       12.1680   36.5380   51.4010 C.3     7  LEU7        0.0001
     16  N         11.0900   39.3750   47.3360 N.am    8  ALA8       -0.1977
     17  CA        10.5240   39.0140   46.0550 C.3     8  ALA8        0.1597
     18  C         11.6910   38.3980   45.2880 C.2     8  ALA8        0.2287
     19  O         12.8420   38.8210   45.4620 O.2     8  ALA8       -0.2864
     20  CB         9.9900   40.2490   45.3470 C.3     8  ALA8        0.0319
     21  N          9.4410   43.7850   39.0270 N.3    23  SER23      -0.1217
     22  CA         8.6660   43.8010   40.2700 C.3    23  SER23       0.1889
     23  C          7.2530   44.2460   39.9480 C.2    23  SER23       0.2288
     24  O          7.0650   45.3170   39.3950 O.2    23  SER23      -0.2866
     25  CB         9.2960   44.7790   41.2700 C.3    23  SER23       0.2089
     26  OG         8.6470   44.7290   42.5360 O.3    23  SER23      -0.2183
     27  N          3.2280   45.5090   40.2310 N.3    25  PHE25      -0.1241
     28  CA         2.4560   46.5360   40.9060 C.3    25  PHE25       0.1605
     29  C          1.8510   45.8730   42.1320 C.2    25  PHE25       0.2264
     30  O          1.9000   46.4230   43.2360 O.2    25  PHE25      -0.2867
     31  CB         1.3410   47.0440   39.9730 C.3    25  PHE25       0.0534
     32  CG         0.3490   47.9800   40.6300 C.ar   25  PHE25      -0.0203
     33  CD1        0.7230   49.2720   41.0140 C.ar   25  PHE25      -0.0042
     34  CD2       -0.9700   47.5750   40.8450 C.ar   25  PHE25      -0.0042
     35  CE1       -0.1990   50.1380   41.5960 C.ar   25  PHE25      -0.0003
     36  CE2       -1.9010   48.4340   41.4290 C.ar   25  PHE25      -0.0003
     37  CZ        -1.5170   49.7210   41.8070 C.ar   25  PHE25      -0.0000
     38  N          2.7960   43.1520   43.8560 N.3    27  ASP27      -0.1225
     39  CA         3.7440   42.8450   44.9270 C.3    27  ASP27       0.1805
     40  C          4.0910   44.1160   45.7160 C.2    27  ASP27       0.2598
     41  O          4.2300   44.0750   46.9410 O.2    27  ASP27      -0.2718
     42  CB         5.0250   42.2230   44.3690 C.3    27  ASP27       0.1424
     43  CG         6.1240   42.1160   45.4250 C.2    27  ASP27       0.3668
     44  OD1        7.1840   42.7410   45.2450 O.co2  27  ASP27      -0.2456
     45  OD2        5.9070   41.4220   46.4410 O.co2  27  ASP27      -0.2456
     46  N          4.2200   45.2450   45.0200 N.am   28  ARG28      -0.1966
     47  CA         4.5540   46.4970   45.6960 C.3    28  ARG28       0.1729
     48  C          3.4850   46.9310   46.6950 C.2    28  ARG28       0.2616
     49  O          3.8000   47.3430   47.8120 O.2    28  ARG28      -0.2715
     50  CB         4.8040   47.6160   44.6770 C.3    28  ARG28       0.0348
     51  CG         6.1250   47.4840   43.9260 C.3    28  ARG28       0.0492
     52  CD         7.2730   47.3110   44.9290 C.3    28  ARG28       0.2205
     53  NE         8.5990   47.1900   44.3180 N.pl3  28  ARG28      -0.0865
     54  CZ         9.2520   48.1830   43.7150 C.cat  28  ARG28       0.5346
     55  NH1       10.4600   47.9690   43.2000 N.pl3  28  ARG28       0.1354
     56  NH2        8.6980   49.3880   43.6270 N.pl3  28  ARG28       0.1354
     57  N          2.2160   46.8370   46.3060 N.am   29  LYS29      -0.1977
     58  CA         1.1460   47.2180   47.2150 C.3    29  LYS29       0.1596
     59  C          1.0460   46.2060   48.3520 C.2    29  LYS29       0.2287
     60  O          0.7860   46.5690   49.5000 O.2    29  LYS29      -0.2864
     61  CB        -0.1850   47.2970   46.4740 C.3    29  LYS29       0.0298
     62  CG        -0.3040   48.4840   45.5180 C.3    29  LYS29       0.0038
     63  CD        -0.3220   49.7970   46.2900 C.3    29  LYS29       0.0206
     64  CE        -0.4990   50.9970   45.3710 C.3    29  LYS29       0.1093
     65  NZ         0.6270   51.1610   44.4230 N.3    29  LYS29      -0.1314
     66  N          3.4660   44.5540   49.5480 N.3    31  PHE31      -0.1227
     67  CA         4.6300   44.8310   50.3850 C.3    31  PHE31       0.1736
     68  C          4.3410   45.9730   51.3540 C.2    31  PHE31       0.2595
     69  O          4.6400   45.8820   52.5440 O.2    31  PHE31      -0.2718
     70  CB         5.8270   45.2240   49.5180 C.3    31  PHE31       0.0547
     71  CG         7.0140   45.7070   50.3040 C.ar   31  PHE31      -0.0202
     72  CD1        7.9930   44.8170   50.7370 C.ar   31  PHE31      -0.0042
     73  CD2        7.1610   47.0670   50.5940 C.ar   31  PHE31      -0.0042
     74  CE1        9.1090   45.2700   51.4450 C.ar   31  PHE31      -0.0003
     75  CE2        8.2780   47.5330   51.3050 C.ar   31  PHE31      -0.0003
     76  CZ         9.2530   46.6340   51.7300 C.ar   31  PHE31      -0.0000
     77  N          3.7740   47.0600   50.8510 N.am   32  ARG32      -0.1980
     78  CA         3.4870   48.1670   51.7370 C.3    32  ARG32       0.1597
     79  C          2.4750   47.7210   52.7880 C.2    32  ARG32       0.2287
     80  O          2.6270   48.0080   53.9740 O.2    32  ARG32      -0.2864
     81  CB         2.9320   49.3610   50.9730 C.3    32  ARG32       0.0334
     82  CG         2.8740   50.6190   51.8510 C.3    32  ARG32       0.0492
     83  CD         1.6580   51.4500   51.5630 C.3    32  ARG32       0.2205
     84  NE         1.8820   52.5090   50.5820 N.pl3  32  ARG32      -0.0865
     85  CZ         2.1490   53.7800   50.8890 C.cat  32  ARG32       0.5346
     86  NH1        2.3280   54.6730   49.9210 N.pl3  32  ARG32       0.1354
     87  NH2        2.2400   54.1580   52.1590 N.pl3  32  ARG32       0.1354
     88  N         20.4210   48.7050   50.2760 N.3    47  THR47      -0.1218
     89  CA        19.0100   48.6200   49.9270 C.3    47  THR47       0.1862
     90  C         18.3460   49.9630   50.2720 C.2    47  THR47       0.2287
     91  O         17.5140   50.4770   49.5230 O.2    47  THR47      -0.2866
     92  CB        18.3160   47.4900   50.7060 C.3    47  THR47       0.1770
     93  OG1       18.7850   46.2310   50.2210 O.3    47  THR47      -0.2211
     94  CG2       16.7960   47.5650   50.5250 C.3    47  THR47       0.0375
     95  N         18.9060   52.5120   47.6060 N.3    50  GLU50      -0.1231
     96  CA        18.1780   52.2710   46.3750 C.3    50  GLU50       0.1699
     97  C         16.7350   52.7490   46.5520 C.2    50  GLU50       0.2592
     98  O         16.1400   53.3020   45.6360 O.2    50  GLU50      -0.2718
     99  CB        18.2230   50.7780   46.0270 C.3    50  GLU50       0.0402
    100  CG        17.3840   50.3940   44.8300 C.3    50  GLU50       0.1161
    101  CD        17.4790   48.9060   44.4920 C.2    50  GLU50       0.3649
    102  OE1       16.6980   48.4450   43.6230 O.co2  50  GLU50      -0.2457
    103  OE2       18.3380   48.2080   45.0830 O.co2  50  GLU50      -0.2457
    104  N         16.1670   52.5550   47.7330 N.am   51  ILE51      -0.1980
    105  CA        14.8060   53.0290   47.9530 C.3    51  ILE51       0.1595
    106  C         14.8870   54.5500   47.9560 C.2    51  ILE51       0.2287
    107  O         13.9870   55.2280   47.4730 O.2    51  ILE51      -0.2864
    108  CB        14.2330   52.5340   49.2820 C.3    51  ILE51       0.0276
    109  CG1       14.0510   51.0130   49.2120 C.3    51  ILE51       0.0022
    110  CG2       12.9060   53.2320   49.5680 C.3    51  ILE51       0.0022
    111  CD1       13.8440   50.3490   50.5580 C.3    51  ILE51       0.0001
    112  N         14.6420   56.8480   50.3630 N.3    53  ARG53      -0.1245
    113  CA        14.1050   57.5680   51.5070 C.3    53  ARG53       0.1563
    114  C         13.4170   56.6070   52.4580 C.2    53  ARG53       0.2260
    115  O         13.1430   55.4630   52.1010 O.2    53  ARG53      -0.2867
    116  CB        13.1070   58.6290   51.0440 C.3    53  ARG53       0.0307
    117  CG        11.6730   58.1400   50.8860 C.3    53  ARG53       0.0489
    118  CD        11.5130   57.1330   49.7570 C.3    53  ARG53       0.2205
    119  NE        10.1430   56.6230   49.6760 N.pl3  53  ARG53      -0.0865
    120  CZ         9.7090   55.7630   48.7550 C.cat  53  ARG53       0.5346
    121  NH1       10.5380   55.3070   47.8210 N.pl3  53  ARG53       0.1354
    122  NH2        8.4450   55.3520   48.7710 N.pl3  53  ARG53       0.1354
    123  N         10.5970   54.6670   54.4570 N.3    55  LEU55      -0.1231
    124  CA         9.2640   54.2830   54.0480 C.3    55  LEU55       0.1678
    125  C          8.2930   54.8300   55.0890 C.2    55  LEU55       0.2434
    126  O          8.4690   54.6460   56.2910 O.2    55  LEU55      -0.2733
    127  CB         9.1470   52.7650   53.9620 C.3    55  LEU55       0.0284
    128  CG        10.0010   52.0680   52.8980 C.3    55  LEU55       0.0019
    129  CD1        9.8810   50.5720   53.0950 C.3    55  LEU55       0.0001
    130  CD2        9.5530   52.4620   51.4970 C.3    55  LEU55       0.0001
    131  N          7.2420   55.5110   54.6290 N.am   56  PRO56      -0.2729
    132  CA         6.2400   56.0950   55.5160 C.3    56  PRO56       0.1401
    133  C          5.4600   55.1150   56.4080 C.2    56  PRO56       0.2269
    134  O          5.2000   53.9680   56.0320 O.2    56  PRO56      -0.2865
    135  CB         5.3410   56.8490   54.5430 C.3    56  PRO56       0.0296
    136  CG         5.3820   55.9800   53.3190 C.3    56  PRO56       0.0237
    137  CD         6.8620   55.6870   53.2160 C.3    56  PRO56       0.0939
    138  N          6.3520   53.6100   59.0440 N.3    58  ARG58      -0.1245
    139  CA         7.1400   52.5060   59.5580 C.3    58  ARG58       0.1563
    140  C          8.4480   53.0160   60.1410 C.2    58  ARG58       0.2260
    141  O          8.9970   54.0210   59.6860 O.2    58  ARG58      -0.2867
    142  CB         7.4590   51.5190   58.4280 C.3    58  ARG58       0.0307
    143  CG         6.3190   50.6080   58.0020 C.3    58  ARG58       0.0489
    144  CD         6.4350   50.2570   56.5210 C.3    58  ARG58       0.2205
    145  NE         6.0780   51.3940   55.6780 N.pl3  58  ARG58      -0.0865
    146  CZ         6.0110   51.3620   54.3560 C.cat  58  ARG58       0.5346
    147  NH1        6.2850   50.2460   53.7000 N.pl3  58  ARG58       0.1354
    148  NH2        5.6500   52.4420   53.6900 N.pl3  58  ARG58       0.1354
    149  N         13.6240   43.2050   55.3980 N.3   100  ILE100     -0.1245
    150  CA        13.2860   43.3120   53.9910 C.3   100  ILE100      0.1561
    151  C         14.4420   43.1750   53.0580 C.2   100  ILE100      0.2260
    152  O         14.3010   43.2960   51.8380 O.2   100  ILE100     -0.2867
    153  CB        12.5890   44.6110   53.6750 C.3   100  ILE100      0.0252
    154  CG1       13.5880   45.7720   53.7720 C.3   100  ILE100      0.0019
    155  CG2       11.4010   44.7840   54.5910 C.3   100  ILE100      0.0019
    156  CD1       13.0300   47.0620   53.2690 C.3   100  ILE100      0.0001
    157  N         20.0430   39.2710   54.7000 N.3   106  PHE106     -0.1241
    158  CA        19.3220   37.9960   54.7780 C.3   106  PHE106      0.1605
    159  C         20.3110   36.9260   55.2300 C.2   106  PHE106      0.2264
    160  O         20.0070   36.0850   56.0840 O.2   106  PHE106     -0.2867
    161  CB        18.7390   37.5860   53.4100 C.3   106  PHE106      0.0534
    162  CG        17.5390   38.3960   52.9670 C.ar  106  PHE106     -0.0203
    163  CD1       16.5010   38.6770   53.8480 C.ar  106  PHE106     -0.0042
    164  CD2       17.4110   38.7980   51.6360 C.ar  106  PHE106     -0.0042
    165  CE1       15.3460   39.3430   53.4060 C.ar  106  PHE106     -0.0003
    166  CE2       16.2620   39.4610   51.1890 C.ar  106  PHE106     -0.0003
    167  CZ        15.2330   39.7320   52.0720 C.ar  106  PHE106     -0.0000
    168  N          7.8080   35.5460   53.9740 N.3   119  PHE119     -0.1241
    169  CA         6.7280   36.0700   53.1440 C.3   119  PHE119      0.1605
    170  C          7.4190   36.2480   51.8100 C.2   119  PHE119      0.2264
    171  O          8.0990   37.2600   51.5670 O.2   119  PHE119     -0.2867
    172  CB         6.2180   37.4310   53.6460 C.3   119  PHE119      0.0534
    173  CG         5.4260   37.3620   54.9350 C.ar  119  PHE119     -0.0203
    174  CD1        4.8400   38.5020   55.4590 C.ar  119  PHE119     -0.0042
    175  CD2        5.2720   36.1620   55.6260 C.ar  119  PHE119     -0.0042
    176  CE1        4.1060   38.4620   56.6560 C.ar  119  PHE119     -0.0003
    177  CE2        4.5370   36.1100   56.8300 C.ar  119  PHE119     -0.0003
    178  CZ         3.9550   37.2670   57.3380 C.ar  119  PHE119     -0.0000
    179  N          7.4230   36.4660   47.6490 N.3   121  THR121     -0.1218
    180  CA         6.6970   36.7370   46.4200 C.3   121  THR121      0.1862
    181  C          7.5910   36.1850   45.3080 C.2   121  THR121      0.2287
    182  O          8.7980   36.5170   45.2460 O.2   121  THR121     -0.2866
    183  CB         6.4940   38.2430   46.1600 C.3   121  THR121      0.1770
    184  OG1        5.6190   38.7920   47.1440 O.3   121  THR121     -0.2211
    185  CG2        5.8640   38.4660   44.7690 C.3   121  THR121      0.0375
    186  N          2.3170   34.8090   45.9040 N.3   158  PHE158     -0.1241
    187  CA         2.7000   35.2110   47.2480 C.3   158  PHE158      0.1605
    188  C          2.5630   33.9740   48.1100 C.2   158  PHE158      0.2264
    189  O          1.4890   33.3770   48.2140 O.2   158  PHE158     -0.2867
    190  CB         1.7920   36.3230   47.7750 C.3   158  PHE158      0.0534
    191  CG         2.1330   36.7770   49.1750 C.ar  158  PHE158     -0.0203
    192  CD1        3.3750   37.3430   49.4620 C.ar  158  PHE158     -0.0042
    193  CD2        1.2150   36.6160   50.2160 C.ar  158  PHE158     -0.0042
    194  CE1        3.7010   37.7410   50.7650 C.ar  158  PHE158     -0.0003
    195  CE2        1.5340   37.0110   51.5260 C.ar  158  PHE158     -0.0003
    196  CZ         2.7780   37.5730   51.7990 C.ar  158  PHE158     -0.0000
@<TRIPOS>BOND
     1    21    22    1
     2    24    23    2
     3    23    22    1
     4    31    32    1
     5    31    28    1
     6    27    28    1
     7    22    25    1
     8    32    34   ar
     9    32    33   ar
    10    34    36   ar
    11    28    29    1
    12    33    35   ar
    13    25    26    1
    14    36    37   ar
    15    35    37   ar
    16    29    30    2
    17    55    54    1
    18   102   101   ar
    19    56    54    1
    20    54    53    2
    21    38    39    1
    22    51    50    1
    23    51    52    1
    24    53    52    1
    25    42    39    1
    26    42    43    1
    27    65    64    1
    28   101   100    1
    29   101   103   ar
    30    50    47    1
    31   185   183    1
    32   100    99    1
    33    39    40    1
    34    46    47    1
    35    46    40   am
    36    44    43   ar
    37   182   181    2
    38    18    19    2
    39    18    17    1
    40   181   180    1
    41    20    17    1
    42    64    63    1
    43    43    45   ar
    44    62    63    1
    45    62    61    1
    46    98    97    2
    47    47    48    1
    48    40    41    2
    49   186   187    1
    50    99    96    1
    51    17    16    1
    52   183   180    1
    53   183   184    1
    54    57    48   am
    55    57    58    1
    56    96    97    1
    57    96    95    1
    58   180   179    1
    59    61    58    1
    60    97   104   am
    61    48    49    2
    62    58    59    1
    63   187   190    1
    64   187   188    1
    65    16    10   am
    66   107   106    2
    67   104   105    1
    68   190   191    1
    69   121   120    1
    70   105   106    1
    71   105   108    1
    72   188   189    2
    73    59    60    2
    74    10    11    2
    75    10     9    1
    76   120   122    1
    77   120   119    2
    78   191   192   ar
    79   191   193   ar
    80   109   108    1
    81   109   111    1
    82    14    13    1
    83   108   110    1
    84   192   194   ar
    85    70    71    1
    86    70    67    1
    87    91    90    2
    88    66    67    1
    89   119   118    1
    90     9    12    1
    91     9     8    1
    92   118   117    1
    93    12    13    1
    94    86    85    1
    95    13    15    1
    96    89    90    1
    97    89    88    1
    98    89    92    1
    99   193   195   ar
   100    93    92    1
   101    71    73   ar
   102    71    72   ar
   103   112   113    1
   104    67    68    1
   105    94    92    1
   106    84    85    2
   107    84    83    1
   108    73    75   ar
   109    72    74   ar
   110   194   196   ar
   111    77    68   am
   112    77    78    1
   113   117   116    1
   114    85    87    1
   115     8     3   am
   116    81    78    1
   117    81    82    1
   118   116   113    1
   119   166   164   ar
   120   166   167   ar
   121    75    76   ar
   122    68    69    2
   123    74    76   ar
   124   130   128    1
   125   113   114    1
   126   195   196   ar
   127    83    82    1
   128   171   170    2
   129   164   162   ar
   130    78    79    1
   131   170   169    1
   132   152   151    2
   133     4     3    2
   134     3     2    1
   135   167   165   ar
   136   115   114    2
   137     6     5    1
   138    79    80    2
   139   128   129    1
   140   128   127    1
   141   162   161    1
   142   162   163   ar
   143   151   150    1
   144   169   172    1
   145   169   168    1
   146     2     5    1
   147     2     1    1
   148   137   136    1
   149   137   131    1
   150   156   154    1
   151   136   135    1
   152   165   163   ar
   153   161   158    1
   154     5     7    1
   155   172   173    1
   156   153   154    1
   157   153   150    1
   158   153   155    1
   159   148   146    1
   160   147   146    1
   161   127   124    1
   162   150   149    1
   163   124   123    1
   164   124   125    1
   165   146   145    2
   166   135   132    1
   167   131   125   am
   168   131   132    1
   169   157   158    1
   170   158   159    1
   171   173   174   ar
   172   173   175   ar
   173   125   126    2
   174   159   160    2
   175   174   176   ar
   176   132   133    1
   177   175   177   ar
   178   145   144    1
   179   134   133    2
   180   144   143    1
   181   176   178   ar
   182   177   178   ar
   183   143   142    1
   184   142   139    1
   185   138   139    1
   186   139   140    1
   187   141   140    2
