@<TRIPOS>MOLECULE
tmp/1d1gA00.pdb
 226 221 0 0 0
SMALL
GASTEIGER

@<TRIPOS>ATOM
      1  N         10.8240   39.2920   54.2350 N.3     6  VAL6       -0.1231
      2  CA         9.8990   39.7150   53.1870 C.3     6  VAL6        0.1692
      3  C         10.7570   39.9240   51.9490 C.2     6  VAL6        0.2592
      4  O         11.6180   40.8060   51.9310 O.2     6  VAL6       -0.2718
      5  CB         9.2000   41.0480   53.5310 C.3     6  VAL6        0.0266
      6  CG1        8.1590   41.3530   52.4850 C.3     6  VAL6        0.0020
      7  CG2        8.5500   40.9660   54.9190 C.3     6  VAL6        0.0020
      8  N         10.5530   39.1090   50.9230 N.am    7  LEU7       -0.1966
      9  CA        11.3590   39.2640   49.7170 C.3     7  LEU7        0.1728
     10  C         10.6110   38.8670   48.4610 C.2     7  LEU7        0.2616
     11  O          9.6210   38.1090   48.5060 O.2     7  LEU7       -0.2715
     12  CB        12.6320   38.4040   49.8020 C.3     7  LEU7        0.0311
     13  CG        12.3340   36.8970   49.9250 C.3     7  LEU7        0.0022
     14  CD1       13.4130   36.0590   49.2510 C.3     7  LEU7        0.0001
     15  CD2       12.1680   36.5380   51.4010 C.3     7  LEU7        0.0001
     16  N         11.0900   39.3750   47.3360 N.am    8  ALA8       -0.1977
     17  CA        10.5240   39.0140   46.0550 C.3     8  ALA8        0.1597
     18  C         11.6910   38.3980   45.2880 C.2     8  ALA8        0.2287
     19  O         12.8420   38.8210   45.4620 O.2     8  ALA8       -0.2864
     20  CB         9.9900   40.2490   45.3470 C.3     8  ALA8        0.0319
     21  N         17.1200   37.8770   43.9780 N.3    15  ILE15      -0.1231
     22  CA        16.3850   39.0370   44.4490 C.3    15  ILE15       0.1692
     23  C         16.7290   40.3140   43.6900 C.2    15  ILE15       0.2591
     24  O         16.2010   41.3770   43.9920 O.2    15  ILE15      -0.2718
     25  CB        16.6040   39.2500   45.9610 C.3    15  ILE15       0.0266
     26  CG1       18.1010   39.3940   46.2610 C.3    15  ILE15       0.0019
     27  CG2       15.9900   38.0680   46.7320 C.3    15  ILE15       0.0020
     28  CD1       18.4000   39.7420   47.7250 C.3    15  ILE15       0.0001
     29  N         17.6160   40.2200   42.7050 N.am   16  ALA16      -0.1980
     30  CA        17.9480   41.3980   41.9030 C.3    16  ALA16       0.1597
     31  C         18.5210   40.9580   40.5680 C.2    16  ALA16       0.2287
     32  O         19.1730   39.9190   40.4850 O.2    16  ALA16      -0.2864
     33  CB        18.9540   42.2830   42.6320 C.3    16  ALA16       0.0319
     34  N         10.7550   44.2790   36.8620 N.3    22  TRP22      -0.1241
     35  CA        10.2580   42.9140   36.9100 C.3    22  TRP22       0.1605
     36  C          9.3800   42.7790   38.1600 C.2    22  TRP22       0.2264
     37  O          8.6660   41.7890   38.3290 O.2    22  TRP22      -0.2867
     38  CB        11.4290   41.9060   36.9550 C.3    22  TRP22       0.0550
     39  CG        12.4220   42.1220   38.0830 C.ar   22  TRP22       0.0003
     40  CD1       13.5020   42.9610   38.0770 C.ar   22  TRP22       0.0946
     41  CD2       12.4320   41.4700   39.3650 C.ar   22  TRP22       0.0152
     42  NE1       14.1870   42.8700   39.2690 N.ar   22  TRP22      -0.2442
     43  CE2       13.5530   41.9640   40.0780 C.ar   22  TRP22       0.0810
     44  CE3       11.6060   40.5180   39.9780 C.ar   22  TRP22       0.0012
     45  CZ2       13.8680   41.5340   41.3800 C.ar   22  TRP22       0.0191
     46  CZ3       11.9200   40.0890   41.2760 C.ar   22  TRP22       0.0001
     47  CH2       13.0410   40.5970   41.9590 C.ar   22  TRP22       0.0015
     48  N         19.6190   46.6950   54.8120 N.3    44  GLY44      -0.1210
     49  CA        21.0290   47.0040   54.7090 C.3    44  GLY44       0.1956
     50  C         21.1510   48.3930   54.1030 C.2    44  GLY44       0.2612
     51  O         20.2280   48.8900   53.4450 O.2    44  GLY44      -0.2717
     52  N         22.2930   49.0290   54.3110 N.am   45  ARG45      -0.1965
     53  CA        22.4920   50.3790   53.7930 C.3    45  ARG45       0.1729
     54  C         22.2790   50.4870   52.2690 C.2    45  ARG45       0.2616
     55  O         21.6390   51.4180   51.7820 O.2    45  ARG45      -0.2715
     56  CB        23.8970   50.8670   54.1640 C.3    45  ARG45       0.0348
     57  CG        24.0930   52.3580   53.9840 C.3    45  ARG45       0.0492
     58  CD        25.5470   52.6550   53.7370 C.3    45  ARG45       0.2205
     59  NE        25.8260   52.6350   52.3080 N.pl3  45  ARG45      -0.0865
     60  CZ        26.8150   51.9640   51.7250 C.cat  45  ARG45       0.5346
     61  NH1       26.9620   52.0350   50.4090 N.pl3  45  ARG45       0.1354
     62  NH2       27.6390   51.2150   52.4400 N.pl3  45  ARG45       0.1354
     63  N         22.8020   49.5260   51.5240 N.am   46  ILE46      -0.1963
     64  CA        22.6930   49.5580   50.0650 C.3    46  ILE46       0.1727
     65  C         21.2500   49.5020   49.6010 C.2    46  ILE46       0.2616
     66  O         20.8890   50.1810   48.6450 O.2    46  ILE46      -0.2715
     67  CB        23.5160   48.4030   49.4140 C.3    46  ILE46       0.0290
     68  CG1       25.0030   48.5840   49.7380 C.3    46  ILE46       0.0022
     69  CG2       23.3080   48.3800   47.8910 C.3    46  ILE46       0.0023
     70  CD1       25.8400   47.3340   49.5080 C.3    46  ILE46       0.0001
     71  N         20.4210   48.7050   50.2760 N.am   47  THR47      -0.1951
     72  CA        19.0100   48.6200   49.9270 C.3    47  THR47       0.1897
     73  C         18.3460   49.9630   50.2720 C.2    47  THR47       0.2313
     74  O         17.5140   50.4770   49.5230 O.2    47  THR47      -0.2863
     75  CB        18.3160   47.4900   50.7060 C.3    47  THR47       0.1794
     76  OG1       18.7850   46.2310   50.2210 O.3    47  THR47      -0.2208
     77  CG2       16.7960   47.5650   50.5250 C.3    47  THR47       0.0378
     78  N         18.9060   52.5120   47.6060 N.3    50  GLU50      -0.1245
     79  CA        18.1780   52.2710   46.3750 C.3    50  GLU50       0.1567
     80  C         16.7350   52.7490   46.5520 C.2    50  GLU50       0.2260
     81  O         16.1400   53.3020   45.6360 O.2    50  GLU50      -0.2867
     82  CB        18.2230   50.7780   46.0270 C.3    50  GLU50       0.0388
     83  CG        17.3840   50.3940   44.8300 C.3    50  GLU50       0.1160
     84  CD        17.4790   48.9060   44.4920 C.2    50  GLU50       0.3649
     85  OE1       16.6980   48.4450   43.6230 O.co2  50  GLU50      -0.2457
     86  OE2       18.3380   48.2080   45.0830 O.co2  50  GLU50      -0.2457
     87  N         20.9830   49.1570   58.6610 N.3    63  LEU63      -0.1231
     88  CA        22.2300   48.6230   59.1740 C.3    63  LEU63       0.1693
     89  C         23.4070   49.2390   58.4140 C.2    63  LEU63       0.2593
     90  O         23.4020   49.2930   57.1930 O.2    63  LEU63      -0.2718
     91  CB        22.2390   47.0940   59.0300 C.3    63  LEU63       0.0284
     92  CG        21.3500   46.2590   59.9680 C.3    63  LEU63       0.0019
     93  CD1       19.9620   46.8540   60.0770 C.3    63  LEU63       0.0001
     94  CD2       21.2790   44.8180   59.4620 C.3    63  LEU63       0.0001
     95  N         24.3990   49.7210   59.1520 N.am   64  THR64      -0.1939
     96  CA        25.5940   50.3290   58.5580 C.3    64  THR64       0.2028
     97  C         26.6400   50.4120   59.6610 C.2    64  THR64       0.2642
     98  O         26.3050   50.6440   60.8250 O.2    64  THR64      -0.2714
     99  CB        25.3070   51.7630   58.0210 C.3    64  THR64       0.1808
    100  OG1       26.5060   52.3310   57.4710 O.3    64  THR64      -0.2208
    101  CG2       24.8050   52.6680   59.1450 C.3    64  THR64       0.0379
    102  N         27.9010   50.2080   59.3060 N.am   65  ARG65      -0.1963
    103  CA        28.9600   50.2770   60.2980 C.3    65  ARG65       0.1729
    104  C         29.4250   51.7220   60.4700 C.2    65  ARG65       0.2616
    105  O         30.2830   52.0120   61.2910 O.2    65  ARG65      -0.2715
    106  CB        30.1210   49.3600   59.8950 C.3    65  ARG65       0.0348
    107  CG        29.7140   47.8850   59.7940 C.3    65  ARG65       0.0492
    108  CD        30.8860   46.9570   59.4680 C.3    65  ARG65       0.2205
    109  NE        30.4380   45.5980   59.1540 N.pl3  65  ARG65      -0.0865
    110  CZ        29.8110   44.7910   60.0080 C.cat  65  ARG65       0.5346
    111  NH1       29.4380   43.5710   59.6280 N.pl3  65  ARG65       0.1354
    112  NH2       29.5580   45.1950   61.2460 N.pl3  65  ARG65       0.1354
    113  N         28.8460   52.6290   59.6920 N.am   66  ARG66      -0.1977
    114  CA        29.1740   54.0450   59.7890 C.3    66  ARG66       0.1597
    115  C         27.8910   54.7650   60.1580 C.2    66  ARG66       0.2287
    116  O         27.3530   55.5420   59.3630 O.2    66  ARG66      -0.2864
    117  CB        29.6820   54.5890   58.4570 C.3    66  ARG66       0.0334
    118  CG        31.0920   54.1800   58.0920 C.3    66  ARG66       0.0492
    119  CD        31.2880   54.3370   56.5870 C.3    66  ARG66       0.2205
    120  NE        30.0680   53.9140   55.8990 N.pl3  66  ARG66      -0.0865
    121  CZ        29.9880   53.5500   54.6230 C.cat  66  ARG66       0.5346
    122  NH1       28.8120   53.1920   54.1250 N.pl3  66  ARG66       0.1354
    123  NH2       31.0710   53.5290   53.8480 N.pl3  66  ARG66       0.1354
    124  N         21.7720   52.0000   62.3580 N.3    78  PHE78      -0.1227
    125  CA        22.1640   51.1040   63.4250 C.3    78  PHE78       0.1736
    126  C         23.3690   50.2300   63.1090 C.2    78  PHE78       0.2595
    127  O         23.5010   49.6870   62.0060 O.2    78  PHE78      -0.2718
    128  CB        20.9230   50.2670   63.7550 C.3    78  PHE78       0.0547
    129  CG        21.0400   49.4080   64.9800 C.ar   78  PHE78      -0.0202
    130  CD1       21.5730   48.1220   64.8980 C.ar   78  PHE78      -0.0042
    131  CD2       20.5300   49.8530   66.2030 C.ar   78  PHE78      -0.0042
    132  CE1       21.5880   47.2790   66.0230 C.ar   78  PHE78      -0.0003
    133  CE2       20.5380   49.0270   67.3340 C.ar   78  PHE78      -0.0003
    134  CZ        21.0630   47.7410   67.2500 C.ar   78  PHE78      -0.0000
    135  N         24.2540   50.1090   64.0940 N.am   79  ASN79      -0.1960
    136  CA        25.4590   49.3050   63.9450 C.3    79  ASN79       0.1819
    137  C         25.3880   48.1830   64.9660 C.2    79  ASN79       0.2622
    138  O         25.7300   48.3730   66.1320 O.2    79  ASN79      -0.2715
    139  CB        26.7090   50.1730   64.1840 C.3    79  ASN79       0.1195
    140  CG        28.0070   49.4060   63.9700 C.2    79  ASN79       0.2630
    141  OD1       28.0370   48.4020   63.2590 O.2    79  ASN79      -0.2716
    142  ND2       29.0900   49.8860   64.5730 N.am   79  ASN79      -0.0877
    143  N         24.9270   47.0160   64.5310 N.am   80  GLY80      -0.1940
    144  CA        24.8190   45.8920   65.4440 C.3    80  GLY80       0.2014
    145  C         24.5570   44.5670   64.7510 C.2    80  GLY80       0.2640
    146  O         24.3590   44.5190   63.5300 O.2    80  GLY80      -0.2714
    147  N         24.5440   43.4870   65.5300 N.am   81  SER81      -0.1936
    148  CA        24.3210   42.1640   64.9700 C.3    81  SER81       0.2040
    149  C         22.8330   41.9090   64.8570 C.2    81  SER81       0.2485
    150  O         22.0230   42.6570   65.4020 O.2    81  SER81      -0.2729
    151  CB        24.9580   41.0900   65.8570 C.3    81  SER81       0.2129
    152  OG        24.2150   40.9360   67.0520 O.3    81  SER81      -0.2179
    153  N         22.4480   40.8600   64.1190 N.am   82  PRO82      -0.2726
    154  CA        21.0280   40.5350   63.9610 C.3    82  PRO82       0.1402
    155  C         20.3420   40.4400   65.3290 C.2    82  PRO82       0.2269
    156  O         19.2170   40.9060   65.5020 O.2    82  PRO82      -0.2865
    157  CB        21.0760   39.1950   63.2380 C.3    82  PRO82       0.0296
    158  CG        22.2560   39.3740   62.3330 C.3    82  PRO82       0.0237
    159  CD        23.2840   40.0120   63.2510 C.3    82  PRO82       0.0939
    160  N         13.6240   43.2050   55.3980 N.3   100  ILE100     -0.1231
    161  CA        13.2860   43.3120   53.9910 C.3   100  ILE100      0.1692
    162  C         14.4420   43.1750   53.0580 C.2   100  ILE100      0.2593
    163  O         14.3010   43.2960   51.8380 O.2   100  ILE100     -0.2718
    164  CB        12.5890   44.6110   53.6750 C.3   100  ILE100      0.0266
    165  CG1       13.5880   45.7720   53.7720 C.3   100  ILE100      0.0019
    166  CG2       11.4010   44.7840   54.5910 C.3   100  ILE100      0.0020
    167  CD1       13.0300   47.0620   53.2690 C.3   100  ILE100      0.0001
    168  N         15.6210   42.9660   53.5960 N.am  101  GLY101     -0.1942
    169  CA        16.6480   42.7480   52.6380 C.3   101  GLY101      0.2014
    170  C         17.9960   43.3640   52.6420 C.2   101  GLY101      0.2639
    171  O         18.3830   44.2350   53.4230 O.2   101  GLY101     -0.2714
    172  N         18.6460   42.8520   51.6120 N.am  102  GLY102     -0.1939
    173  CA        20.0040   43.0670   51.2530 C.3   102  GLY102      0.2014
    174  C         20.3580   41.5860   51.3230 C.2   102  GLY102      0.2639
    175  O         19.9560   40.9030   52.2840 O.2   102  GLY102     -0.2714
    176  N         21.0200   41.0680   50.2990 N.am  103  LYS103     -0.1963
    177  CA        21.4530   39.6810   50.3190 C.3   103  LYS103      0.1728
    178  C         22.2960   39.5180   51.5860 C.2   103  LYS103      0.2617
    179  O         22.1880   38.5290   52.3060 O.2   103  LYS103     -0.2715
    180  CB        22.3070   39.3940   49.0820 C.3   103  LYS103      0.0311
    181  CG        23.1740   38.1420   49.1290 C.3   103  LYS103      0.0038
    182  CD        23.7800   37.9130   47.7470 C.3   103  LYS103      0.0206
    183  CE        25.3040   37.8580   47.7350 C.3   103  LYS103      0.1093
    184  NZ        26.0190   39.0500   48.2570 N.3   103  LYS103     -0.1314
    185  N         23.1290   40.5130   51.8590 N.am  104  THR104     -0.1937
    186  CA        24.0080   40.4870   53.0260 C.3   104  THR104      0.2028
    187  C         23.1910   40.3800   54.3180 C.2   104  THR104      0.2642
    188  O         23.5040   39.5740   55.1930 O.2   104  THR104     -0.2714
    189  CB        24.8980   41.7640   53.0800 C.3   104  THR104      0.1808
    190  OG1       25.6270   41.8890   51.8510 O.3   104  THR104     -0.2208
    191  CG2       25.9100   41.6910   54.2410 C.3   104  THR104      0.0379
    192  N         22.1270   41.1630   54.4290 N.am  105  VAL105     -0.1963
    193  CA        21.3350   41.1180   55.6460 C.3   105  VAL105      0.1727
    194  C         20.5810   39.7960   55.7980 C.2   105  VAL105      0.2616
    195  O         20.4850   39.2550   56.9070 O.2   105  VAL105     -0.2715
    196  CB        20.3480   42.2890   55.7000 C.3   105  VAL105      0.0290
    197  CG1       19.4850   42.1880   56.9580 C.3   105  VAL105      0.0023
    198  CG2       21.1180   43.6090   55.6800 C.3   105  VAL105      0.0023
    199  N         20.0430   39.2710   54.7000 N.am  106  PHE106     -0.1974
    200  CA        19.3220   37.9960   54.7780 C.3   106  PHE106      0.1639
    201  C         20.3110   36.9260   55.2300 C.2   106  PHE106      0.2290
    202  O         20.0070   36.0850   56.0840 O.2   106  PHE106     -0.2864
    203  CB        18.7390   37.5860   53.4100 C.3   106  PHE106      0.0560
    204  CG        17.5390   38.3960   52.9670 C.ar  106  PHE106     -0.0200
    205  CD1       16.5010   38.6770   53.8480 C.ar  106  PHE106     -0.0042
    206  CD2       17.4110   38.7980   51.6360 C.ar  106  PHE106     -0.0042
    207  CE1       15.3460   39.3430   53.4060 C.ar  106  PHE106     -0.0003
    208  CE2       16.2620   39.4610   51.1890 C.ar  106  PHE106     -0.0003
    209  CZ        15.2330   39.7320   52.0720 C.ar  106  PHE106     -0.0000
    210  N         23.0330   37.1330   57.0970 N.3   108  GLU108     -0.1245
    211  CA        23.3840   37.2660   58.5210 C.3   108  GLU108      0.1567
    212  C         22.3010   36.7220   59.4530 C.2   108  GLU108      0.2260
    213  O         22.5980   36.0660   60.4510 O.2   108  GLU108     -0.2867
    214  CB        23.6160   38.7390   58.8920 C.3   108  GLU108      0.0388
    215  CG        24.7710   39.4300   58.1960 C.3   108  GLU108      0.1160
    216  CD        26.0920   39.2360   58.9130 C.2   108  GLU108      0.3649
    217  OE1       26.6830   38.1320   58.7970 O.co2 108  GLU108     -0.2457
    218  OE2       26.5310   40.1940   59.5980 O.co2 108  GLU108     -0.2457
    219  N         21.5800   38.6910   41.6940 N.3   131  ILE131     -0.1245
    220  CA        22.0090   38.6100   43.0830 C.3   131  ILE131      0.1561
    221  C         21.1570   37.5560   43.8060 C.2   131  ILE131      0.2260
    222  O         19.9360   37.6640   43.8470 O.2   131  ILE131     -0.2867
    223  CB        21.8020   39.9670   43.7830 C.3   131  ILE131      0.0252
    224  CG1       22.6700   41.0320   43.0900 C.3   131  ILE131      0.0019
    225  CG2       22.1180   39.8460   45.2690 C.3   131  ILE131      0.0019
    226  CD1       22.5840   42.3870   43.7140 C.3   131  ILE131      0.0001
@<TRIPOS>BOND
     1    34    35    1
     2    35    38    1
     3    35    36    1
     4    38    39    1
     5    40    39   ar
     6    40    42   ar
     7    39    41   ar
     8    36    37    2
     9    42    43   ar
    10    41    44   ar
    11    41    43   ar
    12    44    46   ar
    13    43    45   ar
    14    32    31    2
    15    31    30    1
    16    46    47   ar
    17    45    47   ar
    18   219   220    1
    19    30    33    1
    20    30    29    1
    21    29    23   am
    22   220   223    1
    23   220   221    1
    24   224   226    1
    25   224   223    1
    26    85    84   ar
    27    23    24    2
    28    23    22    1
    29   223   225    1
    30   221   222    2
    31    21    22    1
    32    22    25    1
    33    84    83    1
    34    84    86   ar
    35    83    82    1
    36    18    19    2
    37    18    17    1
    38    20    17    1
    39    81    80    2
    40    25    26    1
    41    25    27    1
    42    82    79    1
    43    17    16    1
    44    26    28    1
    45    79    80    1
    46    79    78    1
    47    16    10   am
    48   183   182    1
    49   183   184    1
    50   182   181    1
    51    69    67    1
    52    10    11    2
    53    10     9    1
    54    66    65    2
    55   180   181    1
    56   180   177    1
    57    14    13    1
    58    67    68    1
    59    67    64    1
    60    70    68    1
    61    74    73    2
    62    65    64    1
    63    65    71   am
    64     9    12    1
    65     9     8    1
    66    12    13    1
    67    13    15    1
    68    72    73    1
    69    72    71    1
    70    72    75    1
    71    64    63    1
    72    76    75    1
    73   176   177    1
    74   176   174   am
    75   177   178    1
    76    61    60    1
    77    77    75    1
    78     8     3   am
    79   208   206   ar
    80   208   209   ar
    81   173   174    1
    82   173   172    1
    83   174   175    2
    84    63    54   am
    85   178   185   am
    86   178   179    2
    87   172   170   am
    88   206   204   ar
    89    60    59    2
    90    60    62    1
    91    55    54    2
    92   163   162    2
    93   190   189    1
    94   185   186    1
    95     4     3    2
    96     3     2    1
    97   209   207   ar
    98    54    53    1
    99    59    58    1
   100     6     5    1
   101   169   170    1
   102   169   168    1
   103   170   171    2
   104   204   203    1
   105   204   205   ar
   106   186   189    1
   107   186   187    1
   108   162   168   am
   109   162   161    1
   110   189   191    1
   111     2     5    1
   112     2     1    1
   113   167   165    1
   114   207   205   ar
   115   203   200    1
   116    51    50    2
   117     5     7    1
   118   164   165    1
   119   164   161    1
   120   164   166    1
   121    58    57    1
   122    53    56    1
   123    53    52    1
   124   123   121    1
   125    57    56    1
   126   161   160    1
   127    50    52   am
   128    50    49    1
   129   122   121    1
   130   187   192   am
   131   187   188    2
   132   192   193    1
   133   121   120    2
   134   199   200    1
   135   199   194   am
   136    49    48    1
   137   200   201    1
   138   201   202    2
   139   193   196    1
   140   193   194    1
   141   198   196    1
   142   196   197    1
   143   194   195    2
   144   120   119    1
   145   119   118    1
   146   210   211    1
   147    90    89    2
   148   100    99    1
   149    99    96    1
   150    99   101    1
   151   118   117    1
   152   215   214    1
   153   215   216    1
   154    89    95   am
   155    89    88    1
   156   117   114    1
   157   211   214    1
   158   211   212    1
   159    96    95    1
   160    96    97    1
   161    87    88    1
   162   217   216   ar
   163   216   218   ar
   164    91    88    1
   165    91    92    1
   166   109   108    1
   167   109   110    2
   168   102    97   am
   169   102   103    1
   170   116   115    2
   171   212   213    2
   172    94    92    1
   173   108   107    1
   174   111   110    1
   175    97    98    2
   176   113   114    1
   177   113   104   am
   178   114   115    1
   179   107   106    1
   180   106   103    1
   181    92    93    1
   182   110   112    1
   183   103   104    1
   184   104   105    2
   185   127   126    2
   186   158   157    1
   187   158   159    1
   188   124   125    1
   189   126   125    1
   190   126   135   am
   191   157   154    1
   192   159   153    1
   193   141   140    2
   194   125   128    1
   195   146   145    2
   196   128   129    1
   197   136   135    1
   198   136   139    1
   199   136   137    1
   200   154   153    1
   201   154   155    1
   202   140   139    1
   203   140   142   am
   204   153   149   am
   205   143   137   am
   206   143   144    1
   207   145   144    1
   208   145   147   am
   209   149   148    1
   210   149   150    2
   211   130   129   ar
   212   130   132   ar
   213   137   138    2
   214   148   147    1
   215   148   151    1
   216   129   131   ar
   217   155   156    2
   218   151   152    1
   219   132   134   ar
   220   131   133   ar
   221   134   133   ar
