@<TRIPOS>MOLECULE
tmp/1d1iA00.pdb
 79 74 0 0 0
SMALL
GASTEIGER

@<TRIPOS>ATOM
      1  N         -3.9950   -5.7590  -15.6990 N.3    13  LYS13      -0.1245
      2  CA        -2.7620   -6.0680  -16.3790 C.3    13  LYS13       0.1561
      3  C         -1.8290   -4.8760  -16.2670 C.2    13  LYS13       0.2260
      4  O         -2.1800   -3.7250  -16.5900 O.2    13  LYS13      -0.2867
      5  CB        -3.0620   -6.3810  -17.8740 C.3    13  LYS13       0.0271
      6  CG        -1.7690   -6.5220  -18.7020 C.3    13  LYS13       0.0035
      7  CD        -2.0470   -7.0860  -20.1010 C.3    13  LYS13       0.0206
      8  CE        -0.6720   -7.3430  -20.7750 C.3    13  LYS13       0.1093
      9  NZ         0.0450   -6.1070  -21.0560 N.3    13  LYS13      -0.1314
     10  N          1.2490   -3.0430  -17.8870 N.3    15  ASN15      -0.1225
     11  CA         1.7460   -2.9790  -19.2660 C.3    15  ASN15       0.1785
     12  C          3.1830   -2.5350  -19.3500 C.2    15  ASN15       0.2597
     13  O          3.7030   -1.8460  -18.4580 O.2    15  ASN15      -0.2718
     14  CB         0.9080   -2.0080  -20.0930 C.3    15  ASN15       0.1169
     15  CG        -0.5420   -2.4430  -20.1080 C.2    15  ASN15       0.2627
     16  OD1       -0.8580   -3.6160  -20.1690 O.2    15  ASN15      -0.2716
     17  ND2       -1.5380   -1.5500  -19.9780 N.am   15  ASN15      -0.0877
     18  N          3.8310   -2.8020  -20.5130 N.am   16  ASP16      -0.1960
     19  CA         5.2610   -2.5030  -20.6330 C.3    16  ASP16       0.1840
     20  C          5.5990   -1.0240  -20.5370 C.2    16  ASP16       0.2622
     21  O          6.7240   -0.6330  -20.2280 O.2    16  ASP16      -0.2715
     22  CB         5.7940   -3.0860  -21.9740 C.3    16  ASP16       0.1450
     23  CG         7.3080   -2.9830  -22.1250 C.2    16  ASP16       0.3671
     24  OD1        7.7770   -2.2630  -23.0110 O.co2  16  ASP16      -0.2456
     25  OD2        8.0200   -3.5770  -21.3330 O.co2  16  ASP16      -0.2456
     26  N          4.6480   -0.1350  -20.8330 N.am   17  ASP17      -0.1971
     27  CA         4.8900    1.2970  -20.7250 C.3    17  ASP17       0.1709
     28  C          4.4460    1.9170  -19.3750 C.2    17  ASP17       0.2293
     29  O          4.2440    3.1250  -19.2480 O.2    17  ASP17      -0.2864
     30  CB         4.1690    1.9730  -21.9000 C.3    17  ASP17       0.1436
     31  CG         2.6440    1.7960  -21.8740 C.2    17  ASP17       0.3671
     32  OD1        2.0920    1.0740  -21.0420 O.co2  17  ASP17      -0.2456
     33  OD2        1.9900    2.3890  -22.7210 O.co2  17  ASP17      -0.2456
     34  N          1.5540    1.7470  -17.9730 N.3    19  THR19      -0.1218
     35  CA         0.1390    2.0010  -17.8050 C.3    19  THR19       0.1862
     36  C         -0.5020    0.7310  -17.2500 C.2    19  THR19       0.2287
     37  O          0.1350   -0.3510  -17.1200 O.2    19  THR19      -0.2866
     38  CB        -0.4780    2.4070  -19.1590 C.3    19  THR19       0.1770
     39  OG1       -0.3790    1.3080  -20.1030 O.3    19  THR19      -0.2211
     40  CG2        0.1970    3.6590  -19.6800 C.3    19  THR19       0.0375
     41  N         -4.0650   -1.7650  -17.3170 N.3    21  THR21      -0.1218
     42  CA        -5.3170   -2.1090  -17.9620 C.3    21  THR21       0.1862
     43  C         -6.2760   -2.7700  -17.0090 C.2    21  THR21       0.2287
     44  O         -5.8850   -3.6000  -16.1740 O.2    21  THR21      -0.2866
     45  CB        -4.9860   -3.0490  -19.1590 C.3    21  THR21       0.1770
     46  OG1       -4.3340   -2.2120  -20.0930 O.3    21  THR21      -0.2211
     47  CG2       -6.2090   -3.7520  -19.7540 C.3    21  THR21       0.0375
     48  N        -11.9870   -3.5170  -22.1430 N.3    28  GLU28      -0.1231
     49  CA       -10.6560   -3.4620  -21.6050 C.3    28  GLU28       0.1699
     50  C        -10.3060   -1.9810  -21.6840 C.2    28  GLU28       0.2592
     51  O        -10.3570   -1.3880  -22.7620 O.2    28  GLU28      -0.2718
     52  CB        -9.7460   -4.2610  -22.4970 C.3    28  GLU28       0.0402
     53  CG        -8.8050   -5.0800  -21.7480 C.3    28  GLU28       0.1161
     54  CD        -7.7200   -5.7440  -22.5750 C.2    28  GLU28       0.3649
     55  OE1       -7.3980   -6.8650  -22.2780 O.co2  28  GLU28      -0.2457
     56  OE2       -7.1820   -5.1360  -23.4870 O.co2  28  GLU28      -0.2457
     57  N         -9.8850   -1.3030  -20.6150 N.am   29  LEU29      -0.1966
     58  CA        -9.5790    0.1160  -20.6560 C.3    29  LEU29       0.1728
     59  C         -8.2470    0.3240  -19.9020 C.2    29  LEU29       0.2616
     60  O         -7.9250   -0.5580  -19.1000 O.2    29  LEU29      -0.2715
     61  CB       -10.6640    0.9140  -19.9370 C.3    29  LEU29       0.0311
     62  CG       -12.0320    1.4190  -20.4760 C.3    29  LEU29       0.0022
     63  CD1      -12.0950    1.3520  -21.9750 C.3    29  LEU29       0.0001
     64  CD2      -13.1020    0.7180  -19.7260 C.3    29  LEU29       0.0001
     65  N         -7.5000    1.3600  -20.1770 N.am   30  PHE30      -0.1974
     66  CA        -6.2340    1.5490  -19.4850 C.3    30  PHE30       0.1639
     67  C         -6.1690    2.9460  -18.8540 C.2    30  PHE30       0.2290
     68  O         -6.7620    3.9340  -19.3280 O.2    30  PHE30      -0.2864
     69  CB        -5.0270    1.4090  -20.4500 C.3    30  PHE30       0.0560
     70  CG        -4.7850    2.6120  -21.3600 C.ar   30  PHE30      -0.0200
     71  CD1       -3.8830    3.6040  -20.9940 C.ar   30  PHE30      -0.0042
     72  CD2       -5.5150    2.7500  -22.5310 C.ar   30  PHE30      -0.0042
     73  CE1       -3.7090    4.7260  -21.7720 C.ar   30  PHE30      -0.0003
     74  CE2       -5.3250    3.8760  -23.3040 C.ar   30  PHE30      -0.0003
     75  CZ        -4.4330    4.8580  -22.9280 C.ar   30  PHE30      -0.0000
     76  N         -9.5680   -0.6930  -25.3740 N.3    60  GLY60      -0.1225
     77  CA        -8.2900   -0.0260  -25.4840 C.3    60  GLY60       0.1811
     78  C         -8.3500    1.4680  -25.1750 C.2    60  GLY60       0.2280
     79  O         -7.3290    2.1690  -25.3160 O.2    60  GLY60      -0.2866
@<TRIPOS>BOND
     1    77    76    1
     2    77    78    1
     3    79    78    2
     4    56    54   ar
     5    74    75   ar
     6    74    72   ar
     7    24    23   ar
     8    75    73   ar
     9    51    50    2
    10    33    31   ar
    11    54    55   ar
    12    54    53    1
    13    72    70   ar
    14    52    53    1
    15    52    49    1
    16    48    49    1
    17    23    22    1
    18    23    25   ar
    19    63    62    1
    20    22    19    1
    21    30    31    1
    22    30    27    1
    23    31    32   ar
    24    73    71   ar
    25    50    49    1
    26    50    57   am
    27    70    71   ar
    28    70    69    1
    29     9     8    1
    30    26    27    1
    31    26    20   am
    32     8     7    1
    33    27    28    1
    34    58    57    1
    35    58    61    1
    36    58    59    1
    37    19    20    1
    38    19    18    1
    39    20    21    2
    40    18    12   am
    41    62    61    1
    42    62    64    1
    43    69    66    1
    44    65    59   am
    45    65    66    1
    46    16    15    2
    47    15    14    1
    48    15    17   am
    49    39    38    1
    50     7     6    1
    51    46    45    1
    52    14    11    1
    53    59    60    2
    54    47    45    1
    55    40    38    1
    56    66    67    1
    57    28    29    2
    58    12    11    1
    59    12    13    2
    60    68    67    2
    61    11    10    1
    62    45    42    1
    63    38    35    1
    64     6     5    1
    65    34    35    1
    66    42    41    1
    67    42    43    1
    68     5     2    1
    69    35    36    1
    70    36    37    2
    71    43    44    2
    72     4     3    2
    73     2     3    1
    74     2     1    1
