@<TRIPOS>MOLECULE
tmp/1d1iB00.pdb
 113 111 0 0 0
SMALL
GASTEIGER

@<TRIPOS>ATOM
      1  N        -10.1550   22.9720   13.3950 N.3     1  THR1       -0.1218
      2  CA       -11.0740   22.9490   12.2560 C.3     1  THR1        0.1862
      3  C        -12.3430   22.2230   12.6820 C.2     1  THR1        0.2287
      4  O        -12.2610   21.1920   13.3630 O.2     1  THR1       -0.2866
      5  CB       -10.3680   22.2320   11.0760 C.3     1  THR1        0.1770
      6  OG1       -9.1010   22.8620   10.8760 O.3     1  THR1       -0.2211
      7  CG2      -11.1250   22.3640    9.7760 C.3     1  THR1        0.0375
      8  N        -13.9420   16.6710   -1.4920 N.3    30  PHE30      -0.1227
      9  CA       -12.7420   16.2070   -2.1710 C.3    30  PHE30       0.1736
     10  C        -11.4650   16.6170   -1.4020 C.2    30  PHE30       0.2596
     11  O        -11.4700   17.6360   -0.6840 O.2    30  PHE30      -0.2718
     12  CB       -12.6560   16.7860   -3.5840 C.3    30  PHE30       0.0547
     13  CG       -12.2000   18.2370   -3.6670 C.ar   30  PHE30      -0.0202
     14  CD1      -10.8630   18.5450   -3.8640 C.ar   30  PHE30      -0.0042
     15  CD2      -13.1360   19.2450   -3.4860 C.ar   30  PHE30      -0.0042
     16  CE1      -10.4350   19.8560   -3.8730 C.ar   30  PHE30      -0.0003
     17  CE2      -12.6970   20.5500   -3.5000 C.ar   30  PHE30      -0.0003
     18  CZ       -11.3570   20.8570   -3.6870 C.ar   30  PHE30      -0.0000
     19  N        -10.3650   15.9110   -1.6660 N.am   31  THR31      -0.1939
     20  CA        -9.0950   16.3350   -1.1360 C.3    31  THR31       0.2028
     21  C         -8.0610   16.3120   -2.2420 C.2    31  THR31       0.2642
     22  O         -8.0880   15.4450   -3.1710 O.2    31  THR31      -0.2714
     23  CB        -8.6910   15.3910    0.0460 C.3    31  THR31       0.1808
     24  OG1       -7.4270   15.8960    0.4960 O.3    31  THR31      -0.2208
     25  CG2       -8.5450   13.9120   -0.3260 C.3    31  THR31       0.0379
     26  N         -7.1190   17.2490   -2.1730 N.am   32  ASN32      -0.1957
     27  CA        -6.0090   17.2540   -3.0980 C.3    32  ASN32       0.1819
     28  C         -4.7530   16.5790   -2.4810 C.2    32  ASN32       0.2621
     29  O         -3.6680   16.6740   -3.0740 O.2    32  ASN32      -0.2715
     30  CB        -5.6710   18.6910   -3.5190 C.3    32  ASN32       0.1195
     31  CG        -5.0650   19.5490   -2.3730 C.2    32  ASN32       0.2630
     32  OD1       -4.9780   19.1150   -1.2300 O.2    32  ASN32      -0.2716
     33  ND2       -4.6880   20.7660   -2.6290 N.am   32  ASN32      -0.0877
     34  N         -4.8530   15.9290   -1.3260 N.am   33  ARG33      -0.1977
     35  CA        -3.6770   15.3330   -0.6740 C.3    33  ARG33       0.1597
     36  C         -3.5630   13.8940   -1.1930 C.2    33  ARG33       0.2287
     37  O         -4.3670   13.0130   -0.8240 O.2    33  ARG33      -0.2864
     38  CB        -3.8550   15.3480    0.8910 C.3    33  ARG33       0.0334
     39  CG        -4.0850   16.7960    1.4380 C.3    33  ARG33       0.0492
     40  CD        -2.9650   17.7580    1.0290 C.3    33  ARG33       0.2205
     41  NE        -3.3330   19.0840    1.5120 N.pl3  33  ARG33      -0.0865
     42  CZ        -3.0180   19.5630    2.7360 C.cat  33  ARG33       0.5346
     43  NH1       -2.2950   18.8530    3.6280 N.pl3  33  ARG33       0.1354
     44  NH2       -3.5560   20.7210    3.1130 N.pl3  33  ARG33       0.1354
     45  N        -13.0130   16.9640    8.8790 N.3    53  LYS53      -0.1231
     46  CA       -13.0690   18.3180    9.4300 C.3    53  LYS53       0.1693
     47  C        -12.7650   19.2860    8.3210 C.2    53  LYS53       0.2593
     48  O        -11.7470   19.1400    7.6500 O.2    53  LYS53      -0.2718
     49  CB       -12.0350   18.5090   10.5300 C.3    53  LYS53       0.0285
     50  CG       -12.3890   17.6690   11.7310 C.3    53  LYS53       0.0035
     51  CD       -11.1890   17.4840   12.6350 C.3    53  LYS53       0.0206
     52  CE       -11.1190   18.3120   13.9040 C.3    53  LYS53       0.1093
     53  NZ       -12.2920   18.1720   14.7430 N.3    53  LYS53      -0.1314
     54  N        -13.6100   20.2970    8.0900 N.am   54  THR54      -0.1939
     55  CA       -13.3540   21.2940    7.0650 C.3    54  THR54       0.2028
     56  C        -14.2900   22.4740    7.3250 C.2    54  THR54       0.2642
     57  O        -15.3940   22.2890    7.8400 O.2    54  THR54      -0.2714
     58  CB       -13.6260   20.7440    5.6340 C.3    54  THR54       0.1808
     59  OG1      -13.3270   21.8260    4.7670 O.3    54  THR54      -0.2208
     60  CG2      -15.0350   20.1580    5.4400 C.3    54  THR54       0.0379
     61  N        -13.8130   23.6380    6.9630 N.am   55  ASN55      -0.1957
     62  CA       -14.5910   24.8580    7.0150 C.3    55  ASN55       0.1819
     63  C        -15.4320   24.9240    5.7360 C.2    55  ASN55       0.2621
     64  O        -16.3950   25.6860    5.7000 O.2    55  ASN55      -0.2715
     65  CB       -13.7130   26.1030    7.0860 C.3    55  ASN55       0.1195
     66  CG       -13.2080   26.3310    8.5040 C.2    55  ASN55       0.2630
     67  OD1      -12.0360   26.5510    8.7460 O.2    55  ASN55      -0.2716
     68  ND2      -14.0510   26.2100    9.5080 N.am   55  ASN55      -0.0877
     69  N        -15.1660   24.1260    4.6820 N.am   56  ALA56      -0.1977
     70  CA       -15.9400   24.1780    3.4350 C.3    56  ALA56       0.1597
     71  C        -16.8950   23.0180    3.5090 C.2    56  ALA56       0.2287
     72  O        -16.8200   22.0500    2.7420 O.2    56  ALA56      -0.2864
     73  CB       -15.0350   24.0060    2.2390 C.3    56  ALA56       0.0319
     74  N        -19.8350   21.7030    2.6220 N.3    58  HIS58      -0.1241
     75  CA       -20.9220   21.7880    1.6530 C.3    58  HIS58       0.1621
     76  C        -20.5370   20.8080    0.5440 C.2    58  HIS58       0.2264
     77  O        -19.3560   20.4490    0.4170 O.2    58  HIS58      -0.2867
     78  CB       -21.0220   23.2180    1.0810 C.3    58  HIS58       0.0745
     79  CG       -19.7540   23.8050    0.4820 C.ar   58  HIS58       0.0817
     80  ND1      -19.1340   23.5820   -0.6760 N.ar   58  HIS58      -0.2268
     81  CD2      -19.0390   24.7780    1.1130 C.ar   58  HIS58       0.1154
     82  CE1      -18.0980   24.3830   -0.7680 C.ar   58  HIS58       0.1986
     83  NE2      -18.0580   25.0950    0.3230 N.ar   58  HIS58      -0.2212
     84  N        -13.6220   21.2350   -0.2400 N.3    62  GLY62      -0.1210
     85  CA       -12.3490   20.5760   -0.0480 C.3    62  GLY62       0.1956
     86  C        -12.0430   20.2490    1.4130 C.2    62  GLY62       0.2612
     87  O        -12.6180   20.9060    2.3010 O.2    62  GLY62      -0.2717
     88  N        -11.1330   19.3010    1.6910 N.am   63  PHE63      -0.1962
     89  CA       -10.7450   18.9980    3.0630 C.3    63  PHE63       0.1771
     90  C         -9.3370   18.4140    3.0150 C.2    63  PHE63       0.2620
     91  O         -8.8460   17.9650    1.9620 O.2    63  PHE63      -0.2715
     92  CB       -11.6770   17.9640    3.7260 C.3    63  PHE63       0.0574
     93  CG       -11.5780   16.5230    3.1580 C.ar   63  PHE63      -0.0200
     94  CD1      -10.7420   15.5720    3.7130 C.ar   63  PHE63      -0.0042
     95  CD2      -12.3340   16.1560    2.0410 C.ar   63  PHE63      -0.0042
     96  CE1      -10.6390   14.2870    3.1920 C.ar   63  PHE63      -0.0003
     97  CE2      -12.2260   14.8710    1.5170 C.ar   63  PHE63      -0.0003
     98  CZ       -11.3840   13.9320    2.0860 C.ar   63  PHE63      -0.0000
     99  N         -8.6450   18.4360    4.1550 N.am   64  SER64      -0.1936
    100  CA        -7.3780   17.7400    4.3220 C.3    64  SER64       0.2055
    101  C         -7.4080   17.0070    5.6340 C.2    64  SER64       0.2642
    102  O         -6.6000   16.1020    5.8240 O.2    64  SER64      -0.2714
    103  CB        -6.2340   18.7190    4.3140 C.3    64  SER64       0.2130
    104  OG        -6.4880   19.7060    5.2680 O.3    64  SER64      -0.2179
    105  N         -8.3230   17.2770    6.5690 N.am   65  GLU65      -0.1976
    106  CA        -8.2640   16.6240    7.8610 C.3    65  GLU65       0.1602
    107  C         -9.2760   15.5280    8.0160 C.2    65  GLU65       0.2287
    108  O        -10.4920   15.7240    7.8030 O.2    65  GLU65      -0.2864
    109  CB        -8.4620   17.6570    9.0090 C.3    65  GLU65       0.0415
    110  CG        -7.3960   18.7430    8.9580 C.3    65  GLU65       0.1163
    111  CD        -7.5810   19.7590   10.0840 C.2    65  GLU65       0.3649
    112  OE1       -7.7490   19.3480   11.2430 O.co2  65  GLU65      -0.2457
    113  OE2       -7.5720   20.9440    9.7780 O.co2  65  GLU65      -0.2457
@<TRIPOS>BOND
     1    16    14   ar
     2    16    18   ar
     3    14    13   ar
     4    18    17   ar
     5    13    12    1
     6    13    15   ar
     7    12     9    1
     8    30    27    1
     9    30    31    1
    10    17    15   ar
    11    22    21    2
    12    27    28    1
    13    27    26    1
    14    29    28    2
    15    33    31   am
    16    28    34   am
    17    31    32    2
    18    21    26   am
    19    21    20    1
    20     9     8    1
    21     9    10    1
    22    19    10   am
    23    19    20    1
    24    10    11    2
    25    34    35    1
    26    36    37    2
    27    36    35    1
    28    20    23    1
    29    82    80   ar
    30    82    83   ar
    31    80    79   ar
    32    35    38    1
    33    25    23    1
    34    84    85    1
    35    85    86    1
    36    23    24    1
    37    83    81   ar
    38    77    76    2
    39    79    78    1
    40    79    81   ar
    41    76    75    1
    42    38    39    1
    43    40    39    1
    44    40    41    1
    45    78    75    1
    46    86    88   am
    47    86    87    2
    48    41    42    2
    49    97    95   ar
    50    97    98   ar
    51    75    74    1
    52    88    89    1
    53    91    90    2
    54    95    93   ar
    55    98    96   ar
    56    73    70    1
    57    42    44    1
    58    42    43    1
    59    72    71    2
    60    90    89    1
    61    90    99   am
    62    89    92    1
    63    93    94   ar
    64    93    92    1
    65    96    94   ar
    66    70    71    1
    67    70    69    1
    68    99   100    1
    69   103   100    1
    70   103   104    1
    71   100   101    1
    72    69    63   am
    73    59    58    1
    74    60    58    1
    75   101   102    2
    76   101   105   am
    77    58    55    1
    78    64    63    2
    79    63    62    1
    80   105   106    1
    81    61    62    1
    82    61    56   am
    83    62    65    1
    84    55    56    1
    85    55    54    1
    86    65    66    1
    87    56    57    2
    88    48    47    2
    89   108   107    2
    90   106   107    1
    91   106   109    1
    92    54    47   am
    93    47    46    1
    94    66    67    2
    95    66    68   am
    96    45    46    1
    97   110   109    1
    98   110   111    1
    99    46    49    1
   100     7     5    1
   101   113   111   ar
   102   111   112   ar
   103    49    50    1
   104     6     5    1
   105     5     2    1
   106    50    51    1
   107     2     3    1
   108     2     1    1
   109    51    52    1
   110     3     4    2
   111    52    53    1
