@<TRIPOS>MOLECULE
tmp/1d1pA00.pdb
 102 103 0 0 0
SMALL
GASTEIGER

@<TRIPOS>ATOM
      1  N          5.3270    4.2500   28.6450 N.3     9  CYS9       -0.1221
      2  CA         4.3520    3.3890   27.9940 C.3     9  CYS9        0.1808
      3  C          3.2510    4.3720   27.5680 C.2     9  CYS9        0.2601
      4  O          3.4590    5.5860   27.6780 O.2     9  CYS9       -0.2717
      5  CB         3.8620    2.2620   28.9080 C.3     9  CYS9        0.0970
      6  SG         2.9410    2.7130   30.3320 S.3     9  CYS9       -0.0800
      7  N          2.1090    3.8980   27.0740 N.am   10  LEU10      -0.1965
      8  CA         1.0630    4.8210   26.6280 C.3    10  LEU10       0.1728
      9  C          0.3550    5.5660   27.7640 C.2    10  LEU10       0.2616
     10  O          0.2690    6.8030   27.7520 O.2    10  LEU10      -0.2715
     11  CB         0.0290    4.0700   25.7910 C.3    10  LEU10       0.0311
     12  CG        -1.2560    4.8280   25.5270 C.3    10  LEU10       0.0022
     13  CD1       -0.9560    6.0710   24.6800 C.3    10  LEU10       0.0001
     14  CD2       -2.2340    3.8870   24.8430 C.3    10  LEU10       0.0001
     15  N         -0.1370    4.8280   28.7540 N.am   11  GLY11      -0.1955
     16  CA        -0.8270    5.5010   29.8230 C.3    11  GLY11       0.1869
     17  C         -0.1320    5.5620   31.1710 C.2    11  GLY11       0.2309
     18  O         -0.7640    6.0250   32.0920 O.2    11  GLY11      -0.2863
     19  N          0.2500    3.3960   33.2380 N.3    13  PHE13      -0.1227
     20  CA        -0.7370    2.7690   34.0830 C.3    13  PHE13       0.1736
     21  C         -0.5280    1.2760   34.3310 C.2    13  PHE13       0.2596
     22  O         -0.7050    0.8110   35.4550 O.2    13  PHE13      -0.2718
     23  CB        -2.1060    3.0010   33.4510 C.3    13  PHE13       0.0547
     24  CG        -3.2590    2.6250   34.3270 C.ar   13  PHE13      -0.0202
     25  CD1       -3.5420    3.3490   35.4830 C.ar   13  PHE13      -0.0042
     26  CD2       -4.1350    1.6200   33.9270 C.ar   13  PHE13      -0.0042
     27  CE1       -4.7090    3.0850   36.2240 C.ar   13  PHE13      -0.0003
     28  CE2       -5.2900    1.3430   34.6420 C.ar   13  PHE13      -0.0003
     29  CZ        -5.5860    2.0820   35.7970 C.ar   13  PHE13      -0.0000
     30  N         -0.1640    0.5220   33.2900 N.am   14  CYS14      -0.1956
     31  CA         0.0530   -0.9030   33.4580 C.3    14  CYS14       0.1843
     32  C          1.5140   -1.2580   33.4000 C.2    14  CYS14       0.2625
     33  O          2.0580   -1.7990   34.3630 O.2    14  CYS14      -0.2714
     34  CB        -0.7010   -1.7120   32.3750 C.3    14  CYS14       0.0997
     35  SG        -2.5040   -1.4850   32.2880 S.3    14  CYS14      -0.0797
     36  N          2.1540   -0.8980   32.2860 N.am   15  ARG15      -0.1977
     37  CA         3.5560   -1.2270   32.0130 C.3    15  ARG15       0.1597
     38  C          4.7250   -0.4300   32.5360 C.2    15  ARG15       0.2287
     39  O          5.6030   -1.0040   33.1550 O.2    15  ARG15      -0.2864
     40  CB         3.7800   -1.3660   30.4860 C.3    15  ARG15       0.0334
     41  CG         3.0660   -2.5420   29.8300 C.3    15  ARG15       0.0492
     42  CD         3.0380   -2.3980   28.3150 C.3    15  ARG15       0.2205
     43  NE         2.2500   -1.2290   27.8780 N.pl3  15  ARG15      -0.0865
     44  CZ         2.2550   -0.7660   26.6250 C.cat  15  ARG15       0.5346
     45  NH1        2.9830   -1.3630   25.6900 N.pl3  15  ARG15       0.1354
     46  NH2        1.5710    0.3150   26.3060 N.pl3  15  ARG15       0.1354
     47  N         -4.2570   10.6170   30.0130 N.3    47  TYR47      -0.1227
     48  CA        -5.4430    9.9610   30.5060 C.3    47  TYR47       0.1736
     49  C         -5.4420    9.3950   31.9270 C.2    47  TYR47       0.2595
     50  O         -6.5120    9.2890   32.4950 O.2    47  TYR47      -0.2718
     51  CB        -5.8720    8.8780   29.5250 C.3    47  TYR47       0.0548
     52  CG        -6.6290    9.4980   28.3820 C.ar   47  TYR47      -0.0200
     53  CD1       -6.1630    9.4200   27.0630 C.ar   47  TYR47      -0.0009
     54  CD2       -7.7780   10.2570   28.6380 C.ar   47  TYR47      -0.0009
     55  CE1       -6.8290   10.0960   26.0230 C.ar   47  TYR47       0.0417
     56  CE2       -8.4490   10.9330   27.6170 C.ar   47  TYR47       0.0417
     57  CZ        -7.9750   10.8550   26.3140 C.ar   47  TYR47       0.1957
     58  OH        -8.6550   11.5360   25.3220 O.3    47  TYR47      -0.2866
     59  N         -4.2970    9.0320   32.5140 N.am   48  HIS48      -0.1975
     60  CA        -4.3070    8.4780   33.8910 C.3    48  HIS48       0.1656
     61  C         -3.4070    9.2590   34.8070 C.2    48  HIS48       0.2291
     62  O         -2.8860    8.7220   35.7990 O.2    48  HIS48      -0.2864
     63  CB        -3.8590    7.0090   33.9100 C.3    48  HIS48       0.0771
     64  CG        -4.8150    6.0890   33.2290 C.ar   48  HIS48       0.0820
     65  ND1       -4.6420    5.6690   31.9280 N.ar   48  HIS48      -0.2267
     66  CD2       -5.9720    5.5350   33.6540 C.ar   48  HIS48       0.1154
     67  CE1       -5.6520    4.8930   31.5800 C.ar   48  HIS48       0.1986
     68  NE2       -6.4740    4.7940   32.6090 N.ar   48  HIS48      -0.2212
     69  N          0.9880   -4.3480   25.4920 N.3   128  ASP128     -0.1239
     70  CA        -0.0060   -3.7560   26.3590 C.3   128  ASP128      0.1674
     71  C         -0.8740   -4.8760   26.9130 C.2   128  ASP128      0.2266
     72  O         -1.5440   -5.5710   26.1470 O.2   128  ASP128     -0.2867
     73  CB        -0.8370   -2.7450   25.5420 C.3   128  ASP128      0.1410
     74  CG        -1.7910   -1.9320   26.4060 C.2   128  ASP128      0.3668
     75  OD1       -2.0400   -2.3650   27.5480 O.co2 128  ASP128     -0.2456
     76  OD2       -2.2940   -0.8760   25.9540 O.co2 128  ASP128     -0.2456
     77  N         -3.4270   -4.4360   29.0980 N.3   130  TRP130     -0.1227
     78  CA        -4.7060   -3.9340   29.5580 C.3   130  TRP130      0.1737
     79  C         -5.9250   -4.7670   29.2320 C.2   130  TRP130      0.2595
     80  O         -6.6990   -5.0450   30.1460 O.2   130  TRP130     -0.2718
     81  CB        -4.9060   -2.4970   29.0990 C.3   130  TRP130      0.0564
     82  CG        -6.3010   -2.0410   29.2810 C.ar  130  TRP130      0.0003
     83  CD1       -7.2840   -1.9710   28.3230 C.ar  130  TRP130      0.0946
     84  CD2       -6.8940   -1.6080   30.4910 C.ar  130  TRP130      0.0152
     85  NE1       -8.4530   -1.5140   28.8800 N.ar  130  TRP130     -0.2442
     86  CE2       -8.2400   -1.2830   30.2110 C.ar  130  TRP130      0.0810
     87  CE3       -6.4220   -1.4610   31.7920 C.ar  130  TRP130      0.0012
     88  CZ2       -9.1120   -0.8210   31.1810 C.ar  130  TRP130      0.0191
     89  CZ3       -7.2900   -0.9970   32.7590 C.ar  130  TRP130      0.0001
     90  CH2       -8.6200   -0.6820   32.4490 C.ar  130  TRP130      0.0015
     91  N         -6.1040   -5.1680   27.9660 N.am  131  TYR131     -0.1976
     92  CA        -7.2620   -5.9850   27.5860 C.3   131  TYR131      0.1639
     93  C         -7.0310   -7.4700   27.8420 C.2   131  TYR131      0.2290
     94  O         -7.9350   -8.2760   27.6440 O.2   131  TYR131     -0.2864
     95  CB        -7.6230   -5.8130   26.1000 C.3   131  TYR131      0.0560
     96  CG        -8.0870   -4.4240   25.7150 C.ar  131  TYR131     -0.0198
     97  CD1       -7.1930   -3.4900   25.1810 C.ar  131  TYR131     -0.0009
     98  CD2       -9.3970   -4.0330   25.9160 C.ar  131  TYR131     -0.0009
     99  CE1       -7.6010   -2.2000   24.8630 C.ar  131  TYR131      0.0417
    100  CE2       -9.8170   -2.7480   25.5980 C.ar  131  TYR131      0.0417
    101  CZ        -8.9190   -1.8380   25.0770 C.ar  131  TYR131      0.1957
    102  OH        -9.3580   -0.5670   24.7720 O.3   131  TYR131     -0.2866
@<TRIPOS>BOND
     1    13    12    1
     2   102   101    1
     3    14    12    1
     4    99   101   ar
     5    99    97   ar
     6   101   100   ar
     7    97    96   ar
     8    58    57    1
     9    69    70    1
    10    12    11    1
    11    73    70    1
    12    73    74    1
    13   100    98   ar
    14    45    44    1
    15    96    98   ar
    16    96    95    1
    17    11     8    1
    18    76    74   ar
    19    55    57   ar
    20    55    53   ar
    21    95    92    1
    22    72    71    2
    23    46    44    1
    24    57    56   ar
    25    70    71    1
    26    74    75   ar
    27    44    43    2
    28     8     7    1
    29     8     9    1
    30    53    52   ar
    31     7     3   am
    32     3     4    2
    33     3     2    1
    34    92    93    1
    35    92    91    1
    36    56    54   ar
    37    94    93    2
    38    10     9    2
    39     9    15   am
    40    43    42    1
    41    91    79   am
    42     2     1    1
    43     2     5    1
    44    42    41    1
    45    83    85   ar
    46    83    82   ar
    47    52    54   ar
    48    52    51    1
    49    15    16    1
    50    85    86   ar
    51     5     6    1
    52    77    78    1
    53    81    82    1
    54    81    78    1
    55    79    78    1
    56    79    80    2
    57    82    84   ar
    58    51    48    1
    59    16    17    1
    60    41    40    1
    61    47    48    1
    62    86    84   ar
    63    86    88   ar
    64    40    37    1
    65    84    87   ar
    66    48    49    1
    67    17    18    2
    68    88    90   ar
    69    67    65   ar
    70    67    68   ar
    71    87    89   ar
    72    49    50    2
    73    49    59   am
    74    65    64   ar
    75    37    36    1
    76    37    38    1
    77    36    32   am
    78    35    34    1
    79    34    31    1
    80    90    89   ar
    81    59    60    1
    82    38    39    2
    83    68    66   ar
    84    64    66   ar
    85    64    63    1
    86    19    20    1
    87    30    31    1
    88    30    21   am
    89    32    31    1
    90    32    33    2
    91    23    20    1
    92    23    24    1
    93    60    63    1
    94    60    61    1
    95    26    24   ar
    96    26    28   ar
    97    20    21    1
    98    24    25   ar
    99    21    22    2
   100    28    29   ar
   101    61    62    2
   102    25    27   ar
   103    29    27   ar
