@<TRIPOS>MOLECULE
tmp/1d1qA00.pdb
 115 117 0 0 0
SMALL
GASTEIGER

@<TRIPOS>ATOM
      1  N          5.6570    5.0830   26.9860 N.3    12  ALA12      -0.1231
      2  CA         4.5290    4.3220   26.4690 C.3    12  ALA12       0.1694
      3  C          3.5010    5.3940   26.0470 C.2    12  ALA12       0.2592
      4  O          3.8700    6.5530   25.7860 O.2    12  ALA12      -0.2718
      5  CB         3.9650    3.3610   27.5150 C.3    12  ALA12       0.0304
      6  N          2.2220    5.0460   25.9540 N.am   13  LEU13      -0.1966
      7  CA         1.2520    6.0720   25.5320 C.3    13  LEU13       0.1728
      8  C          0.7750    6.9130   26.7270 C.2    13  LEU13       0.2617
      9  O          0.9110    8.1390   26.7200 O.2    13  LEU13      -0.2715
     10  CB         0.0420    5.4080   24.8430 C.3    13  LEU13       0.0311
     11  CG        -1.1820    6.3210   24.6490 C.3    13  LEU13       0.0022
     12  CD1       -0.8570    7.4250   23.6600 C.3    13  LEU13       0.0001
     13  CD2       -2.3660    5.4770   24.1650 C.3    13  LEU13       0.0001
     14  N          0.2410    6.2510   27.7590 N.am   14  GLY14      -0.1940
     15  CA        -0.2500    6.9990   28.8970 C.3    14  GLY14       0.2014
     16  C          0.6780    7.2040   30.0910 C.2    14  GLY14       0.2639
     17  O          0.3640    8.0620   30.9170 O.2    14  GLY14      -0.2714
     18  N          1.8150    6.4840   30.1710 N.am   15  ASN15      -0.1958
     19  CA         2.7010    6.5590   31.3550 C.3    15  ASN15       0.1819
     20  C          1.7870    6.2040   32.5380 C.2    15  ASN15       0.2621
     21  O          1.7280    6.9200   33.5510 O.2    15  ASN15      -0.2715
     22  CB         3.2590    7.9740   31.5600 C.3    15  ASN15       0.1195
     23  CG         4.3610    8.0170   32.6160 C.2    15  ASN15       0.2630
     24  OD1        4.5540    9.0320   33.2770 O.2    15  ASN15      -0.2716
     25  ND2        5.1070    6.9070   32.7570 N.am   15  ASN15      -0.0877
     26  N          1.0850    5.0820   32.3930 N.am   16  PHE16      -0.1960
     27  CA         0.0720    4.6450   33.3550 C.3    16  PHE16       0.1771
     28  C          0.1620    3.1360   33.5810 C.2    16  PHE16       0.2620
     29  O          0.0950    2.6870   34.7170 O.2    16  PHE16      -0.2715
     30  CB        -1.3180    5.0280   32.7860 C.3    16  PHE16       0.0574
     31  CG        -2.4580    4.9370   33.7790 C.ar   16  PHE16      -0.0200
     32  CD1       -2.4200    5.6310   34.9840 C.ar   16  PHE16      -0.0042
     33  CD2       -3.5980    4.1740   33.4750 C.ar   16  PHE16      -0.0042
     34  CE1       -3.5050    5.5780   35.8780 C.ar   16  PHE16      -0.0003
     35  CE2       -4.6910    4.1130   34.3680 C.ar   16  PHE16      -0.0003
     36  CZ        -4.6380    4.8210   35.5670 C.ar   16  PHE16      -0.0000
     37  N          0.3070    2.3550   32.5050 N.am   17  CYS17      -0.1954
     38  CA         0.4210    0.9050   32.6600 C.3    17  CYS17       0.1843
     39  C          1.8600    0.4370   32.4690 C.2    17  CYS17       0.2625
     40  O          2.5620    0.1340   33.4180 O.2    17  CYS17      -0.2714
     41  CB        -0.4860    0.1610   31.6660 C.3    17  CYS17       0.0997
     42  SG        -2.2700    0.4250   31.9470 S.3    17  CYS17      -0.0797
     43  N          2.3160    0.4190   31.2300 N.am   18  ARG18      -0.1963
     44  CA         3.6430   -0.1290   30.9800 C.3    18  ARG18       0.1729
     45  C          4.8810    0.6830   31.3650 C.2    18  ARG18       0.2616
     46  O          5.8120    0.1250   31.9860 O.2    18  ARG18      -0.2715
     47  CB         3.7660   -0.5150   29.5010 C.3    18  ARG18       0.0348
     48  CG         2.8050   -1.6340   29.0480 C.3    18  ARG18       0.0492
     49  CD         2.6010   -1.5480   27.5400 C.3    18  ARG18       0.2205
     50  NE         1.9530   -0.2890   27.1470 N.pl3  18  ARG18      -0.0865
     51  CZ         1.8270    0.1190   25.8810 C.cat  18  ARG18       0.5346
     52  NH1        2.3080   -0.6230   24.8800 N.pl3  18  ARG18       0.1354
     53  NH2        1.2110    1.2710   25.6120 N.pl3  18  ARG18       0.1354
     54  N          4.9380    1.9640   30.9990 N.am   19  SER19      -0.1950
     55  CA         6.1830    2.6650   31.2710 C.3    19  SER19       0.1924
     56  C          6.5140    2.8390   32.7650 C.2    19  SER19       0.2314
     57  O          7.6980    2.7490   33.1310 O.2    19  SER19      -0.2863
     58  CB         6.3220    3.9630   30.4380 C.3    19  SER19       0.2116
     59  OG         5.2950    4.9070   30.6660 O.3    19  SER19      -0.2180
     60  N         -2.6480   12.2400   28.8630 N.3    50  TYR50      -0.1227
     61  CA        -3.8910   11.6750   29.4360 C.3    50  TYR50       0.1736
     62  C         -3.8820   11.2590   30.9120 C.2    50  TYR50       0.2595
     63  O         -4.9410   11.2300   31.5470 O.2    50  TYR50      -0.2718
     64  CB        -4.3660   10.4800   28.6130 C.3    50  TYR50       0.0548
     65  CG        -4.5820   10.7780   27.1370 C.ar   50  TYR50      -0.0200
     66  CD1       -4.1290    9.8880   26.1600 C.ar   50  TYR50      -0.0009
     67  CD2       -5.1920   11.9690   26.7170 C.ar   50  TYR50      -0.0009
     68  CE1       -4.2670   10.1750   24.8010 C.ar   50  TYR50       0.0417
     69  CE2       -5.3380   12.2720   25.3540 C.ar   50  TYR50       0.0417
     70  CZ        -4.8700   11.3710   24.3990 C.ar   50  TYR50       0.1957
     71  OH        -4.9860   11.6500   23.0390 O.3    50  TYR50      -0.2866
     72  N         -2.7100   10.9550   31.4650 N.am   51  HIS51      -0.1975
     73  CA        -2.6250   10.5410   32.8580 C.3    51  HIS51       0.1656
     74  C         -1.5990   11.3560   33.6320 C.2    51  HIS51       0.2291
     75  O         -1.0470   10.9120   34.6380 O.2    51  HIS51      -0.2864
     76  CB        -2.3000    9.0460   32.9170 C.3    51  HIS51       0.0771
     77  CG        -3.3880    8.1920   32.3440 C.ar   51  HIS51       0.0820
     78  ND1       -4.4900    7.8090   33.0800 N.ar   51  HIS51      -0.2267
     79  CD2       -3.6020    7.7480   31.0810 C.ar   51  HIS51       0.1154
     80  CE1       -5.3390    7.1670   32.2940 C.ar   51  HIS51       0.1986
     81  NE2       -4.8250    7.1170   31.0780 N.ar   51  HIS51      -0.2212
     82  N          0.2630   -3.3150   24.8650 N.3   131  ASP131     -0.1239
     83  CA        -0.6180   -2.5420   25.7310 C.3   131  ASP131      0.1674
     84  C         -1.5880   -3.5330   26.4080 C.2   131  ASP131      0.2266
     85  O         -2.3660   -4.2210   25.7280 O.2   131  ASP131     -0.2867
     86  CB        -1.4020   -1.5230   24.8860 C.3   131  ASP131      0.1410
     87  CG        -2.2890   -0.6050   25.7340 C.2   131  ASP131      0.3668
     88  OD1       -2.4410   -0.8450   26.9400 O.co2 131  ASP131     -0.2456
     89  OD2       -2.8370    0.3620   25.1930 O.co2 131  ASP131     -0.2456
     90  N         -3.9950   -2.7020   28.4860 N.3   133  TRP133     -0.1227
     91  CA        -5.2310   -2.0130   28.8650 C.3   133  TRP133      0.1737
     92  C         -6.5490   -2.7760   28.7820 C.2   133  TRP133      0.2595
     93  O         -7.3380   -2.8100   29.7430 O.2   133  TRP133     -0.2718
     94  CB        -5.3870   -0.7200   28.0650 C.3   133  TRP133      0.0564
     95  CG        -6.5520    0.0740   28.5770 C.ar  133  TRP133      0.0003
     96  CD1       -7.7660    0.2740   27.9550 C.ar  133  TRP133      0.0946
     97  CD2       -6.6270    0.7540   29.8300 C.ar  133  TRP133      0.0152
     98  NE1       -8.5830    1.0450   28.7500 N.ar  133  TRP133     -0.2442
     99  CE2       -7.9080    1.3560   29.9050 C.ar  133  TRP133      0.0810
    100  CE3       -5.7320    0.9200   30.8980 C.ar  133  TRP133      0.0012
    101  CZ2       -8.3140    2.1110   31.0140 C.ar  133  TRP133      0.0191
    102  CZ3       -6.1360    1.6770   31.9960 C.ar  133  TRP133      0.0001
    103  CH2       -7.4140    2.2600   32.0470 C.ar  133  TRP133      0.0015
    104  N         -6.7810   -3.3740   27.6240 N.am  134  TYR134     -0.1976
    105  CA        -7.9990   -4.1220   27.3590 C.3   134  TYR134      0.1639
    106  C         -7.8880   -5.5840   27.7290 C.2   134  TYR134      0.2290
    107  O         -8.7810   -6.3710   27.4230 O.2   134  TYR134     -0.2864
    108  CB        -8.3500   -4.0100   25.8720 C.3   134  TYR134      0.0560
    109  CG        -8.9710   -2.6840   25.5600 C.ar  134  TYR134     -0.0198
    110  CD1       -8.3020   -1.7370   24.7900 C.ar  134  TYR134     -0.0009
    111  CD2      -10.2230   -2.3610   26.0700 C.ar  134  TYR134     -0.0009
    112  CE1       -8.8780   -0.4790   24.5300 C.ar  134  TYR134      0.0417
    113  CE2      -10.8070   -1.1240   25.8240 C.ar  134  TYR134      0.0417
    114  CZ       -10.1330   -0.1880   25.0590 C.ar  134  TYR134      0.1957
    115  OH       -10.7150    1.0320   24.8420 O.3   134  TYR134     -0.2866
@<TRIPOS>BOND
     1    71    70    1
     2    12    11    1
     3    13    11    1
     4    70    68   ar
     5    70    69   ar
     6   112   110   ar
     7   112   114   ar
     8    11    10    1
     9   110   109   ar
    10    68    66   ar
    11   115   114    1
    12    10     7    1
    13    82    83    1
    14    52    51    1
    15    86    83    1
    16    86    87    1
    17   114   113   ar
    18    89    87   ar
    19    69    67   ar
    20     7     6    1
    21     7     8    1
    22   109   108    1
    23   109   111   ar
    24    53    51    1
    25    85    84    2
    26    83    84    1
    27    87    88   ar
    28     4     3    2
    29   113   111   ar
    30   108   105    1
    31    51    50    2
    32     6     3   am
    33     3     2    1
    34    66    65   ar
    35     2     1    1
    36     2     5    1
    37    67    65   ar
    38     9     8    2
    39     8    14   am
    40    65    64    1
    41    50    49    1
    42   105   104    1
    43   105   106    1
    44   107   106    2
    45    49    48    1
    46   104    92   am
    47    14    15    1
    48    96    95   ar
    49    96    98   ar
    50    94    95    1
    51    94    91    1
    52    90    91    1
    53    95    97   ar
    54    64    61    1
    55    98    99   ar
    56    92    91    1
    57    92    93    2
    58    60    61    1
    59    15    16    1
    60    48    47    1
    61    61    62    1
    62    47    44    1
    63    97    99   ar
    64    97   100   ar
    65    99   101   ar
    66    16    18   am
    67    16    17    2
    68    18    19    1
    69    58    59    1
    70    58    55    1
    71   100   102   ar
    72    62    72   am
    73    62    63    2
    74    44    43    1
    75    44    45    1
    76    54    55    1
    77    54    45   am
    78   101   103   ar
    79    81    79   ar
    80    81    80   ar
    81    79    77   ar
    82    43    39   am
    83    55    56    1
    84    19    22    1
    85    19    20    1
    86    45    46    2
    87    72    73    1
    88    22    23    1
    89    41    42    1
    90    41    38    1
    91   102   103   ar
    92    80    78   ar
    93    77    76    1
    94    77    78   ar
    95    26    20   am
    96    26    27    1
    97    39    38    1
    98    39    40    2
    99    37    38    1
   100    37    28   am
   101    20    21    2
   102    23    25   am
   103    23    24    2
   104    56    57    2
   105    30    27    1
   106    30    31    1
   107    73    76    1
   108    73    74    1
   109    27    28    1
   110    33    31   ar
   111    33    35   ar
   112    28    29    2
   113    74    75    2
   114    31    32   ar
   115    35    36   ar
   116    32    34   ar
   117    36    34   ar
