@<TRIPOS>MOLECULE
tmp/1d1vA02.pdb
 115 114 0 0 0
SMALL
GASTEIGER

@<TRIPOS>ATOM
      1  N          8.8890    5.1370   37.0300 N.3   120  CYS120     -0.1235
      2  CA         7.8360    5.4140   36.0580 C.3   120  CYS120      0.1677
      3  C          6.5090    4.7270   36.4030 C.2   120  CYS120      0.2270
      4  O          6.4200    3.5020   36.4370 O.2   120  CYS120     -0.2867
      5  CB         8.2870    4.9750   34.6570 C.3   120  CYS120      0.0956
      6  SG         7.0670    5.4470   33.4190 S.3   120  CYS120     -0.0801
      7  N         15.0070   18.5340   28.7490 N.3   183  GLN183     -0.1245
      8  CA        13.7860   18.1540   28.0370 C.3   183  GLN183      0.1566
      9  C         13.7890   18.8830   26.6890 C.2   183  GLN183      0.2260
     10  O         14.4470   19.9140   26.5460 O.2   183  GLN183     -0.2867
     11  CB        12.5340   18.5550   28.8340 C.3   183  GLN183      0.0367
     12  CG        12.1830   17.6250   29.9890 C.3   183  GLN183      0.0905
     13  CD        10.7760   17.8700   30.5360 C.2   183  GLN183      0.2608
     14  OE1        9.8300   18.1040   29.7740 O.2   183  GLN183     -0.2717
     15  NE2       10.6320   17.7950   31.8580 N.am  183  GLN183     -0.0878
     16  N          6.0530   15.7390   26.9940 N.3   270  PRO270     -0.2116
     17  CA         7.1390   15.5710   27.9650 C.3   270  PRO270      0.1372
     18  C          8.2090   14.6960   27.3100 C.2   270  PRO270      0.2244
     19  O          7.9960   13.4990   27.1040 O.2   270  PRO270     -0.2868
     20  CB         6.4520   14.8680   29.1330 C.3   270  PRO270      0.0268
     21  CG         5.4520   14.0060   28.4520 C.3   270  PRO270      0.0207
     22  CD         4.8860   14.9130   27.3660 C.3   270  PRO270      0.0892
     23  N         12.1820   13.6290   27.7070 N.3   272  VAL272     -0.1245
     24  CA        13.4250   13.6090   28.4730 C.3   272  VAL272      0.1561
     25  C         14.5990   13.4720   27.5150 C.2   272  VAL272      0.2260
     26  O         14.6760   12.5090   26.7500 O.2   272  VAL272     -0.2867
     27  CB        13.4500   12.4230   29.4490 C.3   272  VAL272      0.0252
     28  CG1       14.6780   12.4980   30.3300 C.3   272  VAL272      0.0019
     29  CG2       12.1900   12.4280   30.2820 C.3   272  VAL272      0.0019
     30  N         19.0870   11.9100   29.7000 N.3   275  MET275     -0.1245
     31  CA        19.3860   10.6310   30.3170 C.3   275  MET275      0.1570
     32  C         20.1360    9.6910   29.3880 C.2   275  MET275      0.2261
     33  O         20.0670    9.8070   28.1640 O.2   275  MET275     -0.2867
     34  CB        18.1010    9.9690   30.8260 C.3   275  MET275      0.0387
     35  CG        17.5570   10.6310   32.0840 C.3   275  MET275      0.0595
     36  SD        16.1470    9.7760   32.8150 S.3   275  MET275     -0.1393
     37  CE        16.9840    8.5570   33.7980 C.3   275  MET275      0.0692
     38  N         13.4510   10.4130   24.8320 N.3   289  PHE289     -0.1227
     39  CA        12.2370    9.6040   24.8270 C.3   289  PHE289      0.1736
     40  C         11.0580   10.4280   25.3440 C.2   289  PHE289      0.2596
     41  O         11.2390   11.3390   26.1470 O.2   289  PHE289     -0.2718
     42  CB        12.4480    8.3350   25.6640 C.3   289  PHE289      0.0547
     43  CG        12.9250    8.5910   27.0690 C.ar  289  PHE289     -0.0202
     44  CD1       12.0210    8.8560   28.0860 C.ar  289  PHE289     -0.0042
     45  CD2       14.2810    8.5550   27.3770 C.ar  289  PHE289     -0.0042
     46  CE1       12.4560    9.0780   29.3920 C.ar  289  PHE289     -0.0003
     47  CE2       14.7290    8.7760   28.6820 C.ar  289  PHE289     -0.0003
     48  CZ        13.8100    9.0370   29.6900 C.ar  289  PHE289     -0.0000
     49  N          9.8520   10.1220   24.8780 N.am  290  SER290     -0.1938
     50  CA         8.6790   10.8670   25.3160 C.3   290  SER290      0.2055
     51  C          7.4240   10.0090   25.4080 C.2   290  SER290      0.2644
     52  O          7.3140    8.9590   24.7640 O.2   290  SER290     -0.2714
     53  CB         8.4060   12.0330   24.3630 C.3   290  SER290      0.2130
     54  OG         8.0030   11.5620   23.0880 O.3   290  SER290     -0.2179
     55  N          6.4820   10.4770   26.2200 N.am  291  GLY291     -0.1939
     56  CA         5.2130    9.7970   26.3940 C.3   291  GLY291      0.2014
     57  C          4.1840   10.9040   26.4600 C.2   291  GLY291      0.2639
     58  O          4.1290   11.7480   25.5670 O.2   291  GLY291     -0.2714
     59  N          3.3550   10.8820   27.5000 N.am  292  TRP292     -0.1959
     60  CA         2.3710   11.9310   27.7410 C.3   292  TRP292      0.1771
     61  C          2.3490   12.1990   29.2410 C.2   292  TRP292      0.2620
     62  O          2.7770   11.3650   30.0390 O.2   292  TRP292     -0.2715
     63  CB         0.9790   11.5570   27.2140 C.3   292  TRP292      0.0590
     64  CG         0.4130   10.2580   27.6920 C.ar  292  TRP292      0.0006
     65  CD1       -0.1560   10.0000   28.9100 C.ar  292  TRP292      0.0946
     66  CD2        0.3380    9.0380   26.9480 C.ar  292  TRP292      0.0152
     67  NE1       -0.5810    8.6960   28.9660 N.ar  292  TRP292     -0.2442
     68  CE2       -0.2910    8.0830   27.7750 C.ar  292  TRP292      0.0810
     69  CE3        0.7410    8.6620   25.6600 C.ar  292  TRP292      0.0012
     70  CZ2       -0.5280    6.7680   27.3540 C.ar  292  TRP292      0.0191
     71  CZ3        0.5060    7.3530   25.2410 C.ar  292  TRP292      0.0001
     72  CH2       -0.1240    6.4230   26.0910 C.ar  292  TRP292      0.0015
     73  N          1.8630   13.3730   29.6160 N.am  293  TYR293     -0.1960
     74  CA         1.8220   13.7950   31.0090 C.3   293  TYR293      0.1771
     75  C          0.7720   13.1910   31.9330 C.2   293  TYR293      0.2619
     76  O         -0.2990   12.7630   31.4990 O.2   293  TYR293     -0.2715
     77  CB         1.6490   15.3190   31.0750 C.3   293  TYR293      0.0574
     78  CG         2.9320   16.1220   31.0930 C.ar  293  TYR293     -0.0198
     79  CD1        3.8380   16.0020   32.1500 C.ar  293  TYR293     -0.0009
     80  CD2        3.2080   17.0590   30.0910 C.ar  293  TYR293     -0.0009
     81  CE1        4.9820   16.7940   32.2120 C.ar  293  TYR293      0.0417
     82  CE2        4.3510   17.8570   30.1440 C.ar  293  TYR293      0.0417
     83  CZ         5.2300   17.7250   31.2060 C.ar  293  TYR293      0.1957
     84  OH         6.3430   18.5340   31.2690 O.3   293  TYR293     -0.2866
     85  N          1.1160   13.1480   33.2170 N.am  294  MET294     -0.1977
     86  CA         0.1770   12.7410   34.2530 C.3   294  MET294      0.1605
     87  C         -0.0880   14.1410   34.8170 C.2   294  MET294      0.2287
     88  O          0.8600   14.8750   35.1050 O.2   294  MET294     -0.2864
     89  CB         0.8160   11.8600   35.3300 C.3   294  MET294      0.0413
     90  CG        -0.1770   11.5230   36.4450 C.3   294  MET294      0.0598
     91  SD         0.2740   10.1210   37.4800 S.3   294  MET294     -0.1393
     92  CE         1.3950   10.8930   38.6270 C.3   294  MET294      0.0692
     93  N          2.0760   16.2310   37.4190 N.3   297  GLU297     -0.1245
     94  CA         3.4070   16.7050   37.0540 C.3   297  GLU297      0.1567
     95  C          3.3420   18.2090   36.7840 C.2   297  GLU297      0.2260
     96  O          4.1990   18.9810   37.2320 O.2   297  GLU297     -0.2867
     97  CB         3.8950   15.9900   35.7960 C.3   297  GLU297      0.0388
     98  CG         4.3490   14.5640   36.0100 C.3   297  GLU297      0.1160
     99  CD         4.7610   13.9020   34.7110 C.2   297  GLU297      0.3649
    100  OE1        3.9070   13.2410   34.0740 O.co2 297  GLU297     -0.2457
    101  OE2        5.9370   14.0610   34.3240 O.co2 297  GLU297     -0.2457
    102  N          8.4440    7.8840   44.3010 N.3   383  TRP383     -0.1241
    103  CA         8.1990    8.4710   42.9890 C.3   383  TRP383      0.1605
    104  C          6.8880    8.0030   42.3590 C.2   383  TRP383      0.2264
    105  O          6.2980    8.7090   41.5410 O.2   383  TRP383     -0.2867
    106  CB         9.3580    8.1400   42.0480 C.3   383  TRP383      0.0550
    107  CG        10.5220    9.0810   42.1380 C.ar  383  TRP383      0.0003
    108  CD1       11.3660    9.2610   43.2000 C.ar  383  TRP383      0.0946
    109  CD2       10.9640    9.9860   41.1170 C.ar  383  TRP383      0.0152
    110  NE1       12.3090   10.2250   42.9000 N.ar  383  TRP383     -0.2442
    111  CE2       12.0820   10.6870   41.6290 C.ar  383  TRP383      0.0810
    112  CE3       10.5210   10.2750   39.8190 C.ar  383  TRP383      0.0012
    113  CZ2       12.7620   11.6580   40.8860 C.ar  383  TRP383      0.0191
    114  CZ3       11.2000   11.2470   39.0780 C.ar  383  TRP383      0.0001
    115  CH2       12.3060   11.9250   39.6160 C.ar  383  TRP383      0.0015
@<TRIPOS>BOND
     1    54    53    1
     2    53    50    1
     3    52    51    2
     4    39    38    1
     5    39    40    1
     6    39    42    1
     7    49    50    1
     8    49    40   am
     9    71    69   ar
    10    71    72   ar
    11    50    51    1
    12    40    41    2
    13    51    55   am
    14    58    57    2
    15    69    66   ar
    16    42    43    1
    17    72    70   ar
    18    55    56    1
    19    56    57    1
    20    57    59   am
    21    10     9    2
    22     9     8    1
    23    26    25    2
    24    66    64   ar
    25    66    68   ar
    26    16    22    1
    27    16    17    1
    28    43    45   ar
    29    43    44   ar
    30    19    18    2
    31    63    64    1
    32    63    60    1
    33    18    17    1
    34    70    68   ar
    35    22    21    1
    36    45    47   ar
    37    59    60    1
    38    25    24    1
    39    64    65   ar
    40    23    24    1
    41    60    61    1
    42    68    67   ar
    43    17    20    1
    44     8     7    1
    45     8    11    1
    46    44    46   ar
    47    33    32    2
    48    21    20    1
    49    24    27    1
    50    47    48   ar
    51    11    12    1
    52    65    67   ar
    53    61    73   am
    54    61    62    2
    55    32    31    1
    56    46    48   ar
    57    27    29    1
    58    27    28    1
    59    73    74    1
    60    30    31    1
    61    14    13    2
    62    12    13    1
    63    80    82   ar
    64    80    78   ar
    65    82    83   ar
    66    31    34    1
    67    13    15   am
    68    34    35    1
    69    74    77    1
    70    74    75    1
    71    77    78    1
    72    78    79   ar
    73    83    84    1
    74    83    81   ar
    75    76    75    2
    76    75    85   am
    77    35    36    1
    78    79    81   ar
    79    36    37    1
    80    85    86    1
    81     6     5    1
    82   100    99   ar
    83    86    87    1
    84    86    89    1
    85   101    99   ar
    86     5     2    1
    87    99    98    1
    88    87    88    2
    89    89    90    1
    90    97    98    1
    91    97    94    1
    92     2     3    1
    93     2     1    1
    94     3     4    2
    95    90    91    1
    96    95    94    1
    97    95    96    2
    98    94    93    1
    99    91    92    1
   100   114   115   ar
   101   114   112   ar
   102   115   113   ar
   103   112   109   ar
   104   113   111   ar
   105   109   111   ar
   106   109   107   ar
   107   105   104    2
   108   111   110   ar
   109   106   107    1
   110   106   103    1
   111   107   108   ar
   112   104   103    1
   113   110   108   ar
   114   103   102    1
