@<TRIPOS>MOLECULE
tmp/1d1xB03.pdb
 141 140 0 0 0
SMALL
GASTEIGER

@<TRIPOS>ATOM
      1  N          8.1610    8.9440   63.1520 N.3   118  CYS118     -0.1235
      2  CA         7.4570   10.0010   63.8800 C.3   118  CYS118      0.1677
      3  C          7.7640   11.4110   63.3650 C.2   118  CYS118      0.2270
      4  O          8.9110   11.8670   63.3880 O.2   118  CYS118     -0.2867
      5  CB         7.7620    9.9250   65.3830 C.3   118  CYS118      0.0956
      6  SG         6.6620   11.0790   66.2780 S.3   118  CYS118     -0.0801
      7  N         -4.3110   -2.5700   69.9450 N.3   180  SER180     -0.1202
      8  CA        -3.2260   -1.8410   69.2830 C.3   180  SER180      0.2020
      9  C         -3.1420   -0.3830   69.7480 C.2   180  SER180      0.2618
     10  O         -2.0900    0.2450   69.6620 O.2   180  SER180     -0.2717
     11  CB        -3.3720   -1.9160   67.7500 C.3   180  SER180      0.2103
     12  OG        -4.5880   -1.3470   67.3080 O.3   180  SER180     -0.2182
     13  N         -4.2590    0.1430   70.2430 N.am  181  GLN181     -0.1979
     14  CA        -4.3390    1.5070   70.7610 C.3   181  GLN181      0.1601
     15  C         -5.2010    1.4320   72.0250 C.2   181  GLN181      0.2287
     16  O         -5.9510    0.4670   72.2030 O.2   181  GLN181     -0.2864
     17  CB        -4.9750    2.4530   69.7280 C.3   181  GLN181      0.0394
     18  CG        -4.0880    2.7740   68.5090 C.3   181  GLN181      0.0908
     19  CD        -4.6130    3.9530   67.6700 C.2   181  GLN181      0.2608
     20  OE1       -5.0210    4.9770   68.2130 O.2   181  GLN181     -0.2717
     21  NE2       -4.5850    3.8100   66.3470 N.am  181  GLN181     -0.0878
     22  N         -4.5440    9.6220   70.7730 N.3   268  PRO268     -0.2116
     23  CA        -3.9150    8.5920   69.9440 C.3   268  PRO268      0.1372
     24  C         -2.8330    7.9670   70.8180 C.2   268  PRO268      0.2244
     25  O         -1.8380    8.6170   71.1380 O.2   268  PRO268     -0.2868
     26  CB        -3.3360    9.3940   68.7870 C.3   268  PRO268      0.0268
     27  CG        -2.8850   10.6370   69.4530 C.3   268  PRO268      0.0207
     28  CD        -4.0270   10.9580   70.4200 C.3   268  PRO268      0.0892
     29  N         -0.5090    4.4170   71.1540 N.3   270  VAL270     -0.1245
     30  CA        -0.0750    3.0800   70.7500 C.3   270  VAL270      0.1561
     31  C          0.1850    2.2210   71.9830 C.2   270  VAL270      0.2260
     32  O          0.8050    2.6770   72.9490 O.2   270  VAL270     -0.2867
     33  CB         1.2190    3.1320   69.9050 C.3   270  VAL270      0.0252
     34  CG1        1.7570    1.7270   69.6920 C.3   270  VAL270      0.0019
     35  CG2        0.9400    3.7990   68.5830 C.3   270  VAL270      0.0019
     36  N          0.7330   -1.4750   71.4330 N.3   272  ASN272     -0.1225
     37  CA         1.1750   -2.7790   70.9430 C.3   272  ASN272      0.1785
     38  C          2.6510   -2.8290   70.5520 C.2   272  ASN272      0.2597
     39  O          3.1400   -3.8570   70.0870 O.2   272  ASN272     -0.2718
     40  CB         0.3000   -3.2130   69.7510 C.3   272  ASN272      0.1169
     41  CG         0.4980   -2.3450   68.5100 C.2   272  ASN272      0.2627
     42  OD1        0.8760   -1.1810   68.6040 O.2   272  ASN272     -0.2716
     43  ND2        0.2220   -2.9140   67.3400 N.am  272  ASN272     -0.0877
     44  N          3.3610   -1.7210   70.7450 N.am  273  MET273     -0.1979
     45  CA         4.7720   -1.6750   70.3980 C.3   273  MET273      0.1605
     46  C          5.6530   -1.9740   71.6060 C.2   273  MET273      0.2287
     47  O          5.2190   -1.8870   72.7560 O.2   273  MET273     -0.2864
     48  CB         5.1420   -0.3110   69.7910 C.3   273  MET273      0.0413
     49  CG         4.5700   -0.0570   68.3920 C.3   273  MET273      0.0598
     50  SD         5.2840    1.4020   67.5780 S.3   273  MET273     -0.1393
     51  CE         6.8420    0.7210   67.0490 C.3   273  MET273      0.0692
     52  N          2.2020    4.7070   74.7620 N.3   287  PHE287     -0.1227
     53  CA         2.5790    6.1090   74.6330 C.3   287  PHE287      0.1736
     54  C          1.5820    6.8800   73.7780 C.2   287  PHE287      0.2596
     55  O          0.9920    6.3370   72.8420 O.2   287  PHE287     -0.2718
     56  CB         3.9960    6.2400   74.0610 C.3   287  PHE287      0.0547
     57  CG         4.1930    5.5530   72.7410 C.ar  287  PHE287     -0.0202
     58  CD1        3.8290    6.1750   71.5540 C.ar  287  PHE287     -0.0042
     59  CD2        4.7730    4.2900   72.6860 C.ar  287  PHE287     -0.0042
     60  CE1        4.0500    5.5480   70.3180 C.ar  287  PHE287     -0.0003
     61  CE2        4.9960    3.6520   71.4550 C.ar  287  PHE287     -0.0003
     62  CZ         4.6340    4.2880   70.2710 C.ar  287  PHE287     -0.0000
     63  N          1.3920    8.1510   74.1160 N.am  288  SER288     -0.1938
     64  CA         0.4450    8.9800   73.3890 C.3   288  SER288      0.2055
     65  C          0.8930   10.4360   73.2460 C.2   288  SER288      0.2644
     66  O          1.6550   10.9620   74.0650 O.2   288  SER288     -0.2714
     67  CB        -0.9110    8.9460   74.0990 C.3   288  SER288      0.2130
     68  OG        -0.8220    9.5750   75.3680 O.3   288  SER288     -0.2179
     69  N          0.3990   11.0760   72.1920 N.am  289  GLY289     -0.1939
     70  CA         0.7010   12.4720   71.9450 C.3   289  GLY289      0.2014
     71  C         -0.6170   13.1270   71.5850 C.2   289  GLY289      0.2639
     72  O         -1.5700   13.0830   72.3640 O.2   289  GLY289     -0.2714
     73  N         -0.6710   13.7570   70.4200 N.am  290  TRP290     -0.1959
     74  CA        -1.9000   14.3640   69.9410 C.3   290  TRP290      0.1771
     75  C         -1.9490   14.0890   68.4460 C.2   290  TRP290      0.2620
     76  O         -0.9240   13.8920   67.8120 O.2   290  TRP290     -0.2715
     77  CB        -1.9750   15.8720   70.2730 C.3   290  TRP290      0.0590
     78  CG        -0.8160   16.7310   69.8740 C.ar  290  TRP290      0.0006
     79  CD1       -0.5060   17.1680   68.6110 C.ar  290  TRP290      0.0946
     80  CD2        0.1720   17.3000   70.7450 C.ar  290  TRP290      0.0152
     81  NE1        0.6100   17.9760   68.6460 N.ar  290  TRP290     -0.2442
     82  CE2        1.0470   18.0730   69.9440 C.ar  290  TRP290      0.0810
     83  CE3        0.4030   17.2300   72.1300 C.ar  290  TRP290      0.0012
     84  CZ2        2.1370   18.7710   70.4790 C.ar  290  TRP290      0.0191
     85  CZ3        1.4840   17.9220   72.6620 C.ar  290  TRP290      0.0001
     86  CH2        2.3400   18.6840   71.8340 C.ar  290  TRP290      0.0015
     87  N         -3.1520   14.0370   67.8990 N.am  291  TYR291     -0.1960
     88  CA        -3.3560   13.7450   66.4840 C.3   291  TYR291      0.1771
     89  C         -2.9570   14.8290   65.4970 C.2   291  TYR291      0.2619
     90  O         -3.0370   16.0330   65.7830 O.2   291  TYR291     -0.2715
     91  CB        -4.8330   13.4410   66.2180 C.3   291  TYR291      0.0574
     92  CG        -5.2220   11.9870   66.3090 C.ar  291  TYR291     -0.0198
     93  CD1       -4.6880   11.0480   65.4280 C.ar  291  TYR291     -0.0009
     94  CD2       -6.1550   11.5520   67.2500 C.ar  291  TYR291     -0.0009
     95  CE1       -5.0720    9.7210   65.4790 C.ar  291  TYR291      0.0417
     96  CE2       -6.5460   10.2210   67.3070 C.ar  291  TYR291      0.0417
     97  CZ        -6.0020    9.3150   66.4190 C.ar  291  TYR291      0.1957
     98  OH        -6.3910    8.0000   66.4530 O.3   291  TYR291     -0.2866
     99  N         -2.5250   14.3760   64.3260 N.am  292  MET292     -0.1977
    100  CA        -2.2230   15.2700   63.2220 C.3   292  MET292      0.1605
    101  C         -3.4940   15.0110   62.4070 C.2   292  MET292      0.2287
    102  O         -3.8740   13.8600   62.2010 O.2   292  MET292     -0.2864
    103  CB        -0.9880   14.8290   62.4390 C.3   292  MET292      0.0413
    104  CG        -0.6760   15.7710   61.2800 C.3   292  MET292      0.0598
    105  SD         0.8870   15.4770   60.4800 S.3   292  MET292     -0.1393
    106  CE         0.5090   14.0500   59.4930 C.3   292  MET292      0.0692
    107  N         -4.3560   11.9640   59.9570 N.3   295  GLU295     -0.1245
    108  CA        -4.4920   10.5990   60.4540 C.3   295  GLU295      0.1567
    109  C         -5.9560   10.1920   60.5420 C.2   295  GLU295      0.2260
    110  O         -6.3130    9.0490   60.2530 O.2   295  GLU295     -0.2867
    111  CB        -3.8440   10.4560   61.8280 C.3   295  GLU295      0.0388
    112  CG        -2.3190   10.5510   61.8410 C.3   295  GLU295      0.1160
    113  CD        -1.7610   10.5030   63.2650 C.2   295  GLU295      0.3649
    114  OE1       -1.5790   11.5770   63.8750 O.co2 295  GLU295     -0.2457
    115  OE2       -1.5280    9.3850   63.7780 O.co2 295  GLU295     -0.2457
    116  N          6.6520    7.5510   55.5000 N.3   381  TRP381     -0.1241
    117  CA         5.7690    7.8230   56.6310 C.3   381  TRP381      0.1605
    118  C          5.7110    9.3120   57.0030 C.2   381  TRP381      0.2264
    119  O          4.6770    9.7930   57.4770 O.2   381  TRP381     -0.2867
    120  CB         6.1990    7.0060   57.8520 C.3   381  TRP381      0.0550
    121  CG         5.6690    5.6080   57.8550 C.ar  381  TRP381      0.0003
    122  CD1        5.8090    4.6720   56.8730 C.ar  381  TRP381      0.0946
    123  CD2        4.8700    5.0030   58.8740 C.ar  381  TRP381      0.0152
    124  NE1        5.1440    3.5240   57.2130 N.ar  381  TRP381     -0.2442
    125  CE2        4.5570    3.6970   58.4390 C.ar  381  TRP381      0.0810
    126  CE3        4.3910    5.4380   60.1150 C.ar  381  TRP381      0.0012
    127  CZ2        3.7760    2.8160   59.2000 C.ar  381  TRP381      0.0191
    128  CZ3        3.6190    4.5650   60.8780 C.ar  381  TRP381      0.0001
    129  CH2        3.3180    3.2650   60.4140 C.ar  381  TRP381      0.0015
    130  N          8.3020   -3.1180   66.6760 N.3   409  TYR409     -0.1241
    131  CA         7.0830   -3.9070   66.5770 C.3   409  TYR409      0.1605
    132  C          7.3790   -5.2530   67.2420 C.2   409  TYR409      0.2264
    133  O          8.5310   -5.6810   67.3200 O.2   409  TYR409     -0.2867
    134  CB         6.7130   -4.1490   65.1160 C.3   409  TYR409      0.0534
    135  CG         6.3980   -2.9030   64.3320 C.ar  409  TYR409     -0.0201
    136  CD1        5.3830   -2.0330   64.7340 C.ar  409  TYR409     -0.0009
    137  CD2        7.0940   -2.6090   63.1650 C.ar  409  TYR409     -0.0009
    138  CE1        5.0680   -0.8990   63.9860 C.ar  409  TYR409      0.0417
    139  CE2        6.7910   -1.4770   62.4120 C.ar  409  TYR409      0.0417
    140  CZ         5.7780   -0.6300   62.8210 C.ar  409  TYR409      0.1957
    141  OH         5.4740    0.4640   62.0450 O.3   409  TYR409     -0.2866
@<TRIPOS>BOND
     1   116   117    1
     2   117   118    1
     3   117   120    1
     4   122   124   ar
     5   122   121   ar
     6   118   119    2
     7   124   125   ar
     8   120   121    1
     9   121   123   ar
    10   125   123   ar
    11   125   127   ar
    12   123   126   ar
    13   127   129   ar
    14   106   105    1
    15   107   108    1
    16   126   128   ar
    17   110   109    2
    18   129   128   ar
    19   108   109    1
    20   108   111    1
    21   105   104    1
    22   104   103    1
    23   111   112    1
    24   112   113    1
    25   141   140    1
    26   102   101    2
    27   101   100    1
    28   139   140   ar
    29   139   137   ar
    30   103   100    1
    31   140   138   ar
    32     1     2    1
    33   137   135   ar
    34   100    99    1
    35   113   115   ar
    36   113   114   ar
    37     3     4    2
    38     3     2    1
    39     2     5    1
    40   138   136   ar
    41    99    89   am
    42   135   136   ar
    43   135   134    1
    44   134   131    1
    45     5     6    1
    46    93    95   ar
    47    93    92   ar
    48    95    97   ar
    49    89    90    2
    50    89    88    1
    51    91    92    1
    52    91    88    1
    53    92    94   ar
    54    21    19   am
    55    97    98    1
    56    97    96   ar
    57    88    87    1
    58   131   130    1
    59   131   132    1
    60    51    50    1
    61   132   133    2
    62    94    96   ar
    63    12    11    1
    64    43    41   am
    65    50    49    1
    66    19    20    2
    67    19    18    1
    68    11     8    1
    69    76    75    2
    70    87    75   am
    71    49    48    1
    72    75    74    1
    73    18    17    1
    74    41    42    2
    75    41    40    1
    76    35    33    1
    77    79    81   ar
    78    79    78   ar
    79    81    82   ar
    80    26    27    1
    81    26    23    1
    82     8     9    1
    83     8     7    1
    84    27    28    1
    85    10     9    2
    86    34    33    1
    87    17    14    1
    88     9    13   am
    89    40    37    1
    90    48    45    1
    91    78    77    1
    92    78    80   ar
    93    33    30    1
    94    74    77    1
    95    74    73    1
    96    23    22    1
    97    23    24    1
    98    82    84   ar
    99    82    80   ar
   100    39    38    2
   101    13    14    1
   102    62    60   ar
   103    62    61   ar
   104    60    58   ar
   105    45    44    1
   106    45    46    1
   107    73    71   am
   108    28    22    1
   109    84    86   ar
   110    38    44   am
   111    38    37    1
   112    80    83   ar
   113    30    29    1
   114    30    31    1
   115    14    15    1
   116    24    25    2
   117    37    36    1
   118    61    59   ar
   119    58    57   ar
   120    71    70    1
   121    71    72    2
   122    46    47    2
   123    86    85   ar
   124    70    69    1
   125    31    32    2
   126    15    16    2
   127    83    85   ar
   128    69    65   am
   129    59    57   ar
   130    57    56    1
   131    55    54    2
   132    65    64    1
   133    65    66    2
   134    64    67    1
   135    64    63    1
   136    54    63   am
   137    54    53    1
   138    56    53    1
   139    67    68    1
   140    53    52    1
