@<TRIPOS>MOLECULE
tmp/1d1yB01.pdb
 141 140 0 0 0
SMALL
GASTEIGER

@<TRIPOS>ATOM
      1  N          8.0120    9.0010   62.9020 N.3   118  CYS118     -0.1235
      2  CA         7.2920   10.0490   63.6260 C.3   118  CYS118      0.1677
      3  C          7.5330   11.4880   63.1470 C.2   118  CYS118      0.2270
      4  O          8.6530   11.9940   63.2080 O.2   118  CYS118     -0.2867
      5  CB         7.6200    9.9510   65.1210 C.3   118  CYS118      0.0956
      6  SG         6.5280   10.9590   66.1270 S.3   118  CYS118     -0.0801
      7  N         -4.1240   -2.7160   69.8440 N.3   180  SER180     -0.1202
      8  CA        -3.0430   -1.9750   69.2160 C.3   180  SER180      0.2020
      9  C         -3.0090   -0.5260   69.7080 C.2   180  SER180      0.2618
     10  O         -1.9470    0.0810   69.7810 O.2   180  SER180     -0.2717
     11  CB        -3.1510   -2.0510   67.6890 C.3   180  SER180      0.2103
     12  OG        -4.3970   -1.5850   67.2280 O.3   180  SER180     -0.2182
     13  N         -4.1710    0.0210   70.0590 N.am  181  GLN181     -0.1979
     14  CA        -4.2550    1.3790   70.6020 C.3   181  GLN181      0.1601
     15  C         -5.1260    1.2900   71.8480 C.2   181  GLN181      0.2287
     16  O         -5.8950    0.3430   71.9870 O.2   181  GLN181     -0.2864
     17  CB        -4.8850    2.3480   69.5950 C.3   181  GLN181      0.0394
     18  CG        -4.0250    2.6590   68.3790 C.3   181  GLN181      0.0908
     19  CD        -4.5990    3.7960   67.5450 C.2   181  GLN181      0.2608
     20  OE1       -5.0110    4.8230   68.0800 O.2   181  GLN181     -0.2717
     21  NE2       -4.6200    3.6190   66.2290 N.am  181  GLN181     -0.0878
     22  N         -4.5770    9.4070   70.6970 N.3   268  PRO268     -0.2116
     23  CA        -3.8770    8.4350   69.8550 C.3   268  PRO268      0.1372
     24  C         -2.8030    7.8130   70.7370 C.2   268  PRO268      0.2244
     25  O         -1.8050    8.4570   71.0480 O.2   268  PRO268     -0.2868
     26  CB        -3.3030    9.3020   68.7500 C.3   268  PRO268      0.0268
     27  CG        -2.9530   10.5490   69.4690 C.3   268  PRO268      0.0207
     28  CD        -4.1540   10.7800   70.3710 C.3   268  PRO268      0.0892
     29  N         -0.5750    4.2520   71.0650 N.3   270  VAL270     -0.1245
     30  CA        -0.1820    2.9170   70.6540 C.3   270  VAL270      0.1561
     31  C          0.1120    2.0710   71.8680 C.2   270  VAL270      0.2260
     32  O          0.7110    2.5480   72.8230 O.2   270  VAL270     -0.2867
     33  CB         1.0620    2.9590   69.7750 C.3   270  VAL270      0.0252
     34  CG1        1.5710    1.5570   69.5150 C.3   270  VAL270      0.0019
     35  CG2        0.7250    3.5950   68.4910 C.3   270  VAL270      0.0019
     36  N          0.7400   -1.7120   71.4050 N.3   272  ASN272     -0.1225
     37  CA         1.2560   -3.0230   71.0390 C.3   272  ASN272      0.1785
     38  C          2.6860   -2.9760   70.5300 C.2   272  ASN272      0.2597
     39  O          3.1640   -3.9470   69.9570 O.2   272  ASN272     -0.2718
     40  CB         0.3690   -3.6670   69.9730 C.3   272  ASN272      0.1169
     41  CG         0.3260   -2.8670   68.6850 C.2   272  ASN272      0.2627
     42  OD1        0.8600   -1.7540   68.6130 O.2   272  ASN272     -0.2716
     43  ND2       -0.3060   -3.4230   67.6580 N.am  272  ASN272     -0.0877
     44  N          3.3670   -1.8520   70.7150 N.am  273  MET273     -0.1979
     45  CA         4.7500   -1.7640   70.2670 C.3   273  MET273      0.1605
     46  C          5.6620   -2.0650   71.4490 C.2   273  MET273      0.2287
     47  O          5.2280   -2.0640   72.5960 O.2   273  MET273     -0.2864
     48  CB         5.0590   -0.3790   69.6820 C.3   273  MET273      0.0413
     49  CG         4.5380   -0.1710   68.2650 C.3   273  MET273      0.0598
     50  SD         5.1750    1.3140   67.4680 S.3   273  MET273     -0.1393
     51  CE         6.7910    0.7190   66.9910 C.3   273  MET273      0.0692
     52  N          2.0880    4.5460   74.6700 N.3   287  PHE287     -0.1227
     53  CA         2.4780    5.9370   74.5520 C.3   287  PHE287      0.1736
     54  C          1.5240    6.7220   73.6660 C.2   287  PHE287      0.2596
     55  O          0.8700    6.1660   72.7730 O.2   287  PHE287     -0.2718
     56  CB         3.9130    6.0220   74.0300 C.3   287  PHE287      0.0547
     57  CG         4.1130    5.4180   72.6630 C.ar  287  PHE287     -0.0202
     58  CD1        3.7640    6.1300   71.5220 C.ar  287  PHE287     -0.0042
     59  CD2        4.7000    4.1610   72.5150 C.ar  287  PHE287     -0.0042
     60  CE1        4.0060    5.6050   70.2430 C.ar  287  PHE287     -0.0003
     61  CE2        4.9480    3.6230   71.2400 C.ar  287  PHE287     -0.0003
     62  CZ         4.6000    4.3510   70.1070 C.ar  287  PHE287     -0.0000
     63  N          1.4350    8.0190   73.9270 N.am  288  SER288     -0.1938
     64  CA         0.5270    8.8650   73.1710 C.3   288  SER288      0.2055
     65  C          0.9610   10.3190   73.0930 C.2   288  SER288      0.2644
     66  O          1.7710   10.7990   73.8930 O.2   288  SER288     -0.2714
     67  CB        -0.8700    8.8040   73.7970 C.3   288  SER288      0.2130
     68  OG        -0.8460    9.2310   75.1530 O.3   288  SER288     -0.2179
     69  N          0.3980   11.0140   72.1170 N.am  289  GLY289     -0.1939
     70  CA         0.6680   12.4230   71.9310 C.3   289  GLY289      0.2014
     71  C         -0.6600   13.0160   71.5050 C.2   289  GLY289      0.2639
     72  O         -1.6300   12.9970   72.2620 O.2   289  GLY289     -0.2714
     73  N         -0.7120   13.5400   70.2910 N.am  290  TRP290     -0.1959
     74  CA        -1.9550   14.0820   69.7770 C.3   290  TRP290      0.1771
     75  C         -2.0120   13.8400   68.2710 C.2   290  TRP290      0.2620
     76  O         -0.9840   13.7820   67.6010 O.2   290  TRP290     -0.2715
     77  CB        -2.1010   15.5730   70.1290 C.3   290  TRP290      0.0590
     78  CG        -0.9480   16.4800   69.7440 C.ar  290  TRP290      0.0006
     79  CD1       -0.6390   16.9270   68.4950 C.ar  290  TRP290      0.0946
     80  CD2        0.0210   17.0600   70.6260 C.ar  290  TRP290      0.0152
     81  NE1        0.4590   17.7550   68.5410 N.ar  290  TRP290     -0.2442
     82  CE2        0.8850   17.8520   69.8390 C.ar  290  TRP290      0.0810
     83  CE3        0.2440   16.9880   72.0090 C.ar  290  TRP290      0.0012
     84  CZ2        1.9530   18.5650   70.3840 C.ar  290  TRP290      0.0191
     85  CZ3        1.3050   17.6920   72.5490 C.ar  290  TRP290      0.0001
     86  CH2        2.1470   18.4710   71.7400 C.ar  290  TRP290      0.0015
     87  N         -3.2230   13.6770   67.7560 N.am  291  TYR291     -0.1960
     88  CA        -3.4640   13.4150   66.3380 C.3   291  TYR291      0.1771
     89  C         -3.0490   14.5000   65.3610 C.2   291  TYR291      0.2619
     90  O         -3.0950   15.6900   65.6810 O.2   291  TYR291     -0.2715
     91  CB        -4.9590   13.1820   66.1100 C.3   291  TYR291      0.0574
     92  CG        -5.3950   11.7540   66.1580 C.ar  291  TYR291     -0.0198
     93  CD1       -4.9150   10.8380   65.2350 C.ar  291  TYR291     -0.0009
     94  CD2       -6.2960   11.3180   67.1140 C.ar  291  TYR291     -0.0009
     95  CE1       -5.3180    9.5110   65.2550 C.ar  291  TYR291      0.0417
     96  CE2       -6.7160    9.9920   67.1570 C.ar  291  TYR291      0.0417
     97  CZ        -6.2170    9.0980   66.2230 C.ar  291  TYR291      0.1957
     98  OH        -6.5880    7.7770   66.2700 O.3   291  TYR291     -0.2866
     99  N         -2.6430   14.0740   64.1680 N.am  292  MET292     -0.1977
    100  CA        -2.3450   14.9950   63.0880 C.3   292  MET292      0.1605
    101  C         -3.6170   14.7630   62.2770 C.2   292  MET292      0.2287
    102  O         -3.9630   13.6160   61.9930 O.2   292  MET292     -0.2864
    103  CB        -1.1220   14.5830   62.2710 C.3   292  MET292      0.0413
    104  CG        -0.8480   15.5660   61.1270 C.3   292  MET292      0.0598
    105  SD         0.7010   15.3200   60.2320 S.3   292  MET292     -0.1393
    106  CE         0.3550   13.8340   59.3050 C.3   292  MET292      0.0692
    107  N         -4.4190   11.7500   59.8490 N.3   295  GLU295     -0.1245
    108  CA        -4.5200   10.3720   60.3210 C.3   295  GLU295      0.1567
    109  C         -6.0010   10.0240   60.4120 C.2   295  GLU295      0.2260
    110  O         -6.4110    8.8990   60.1230 O.2   295  GLU295     -0.2867
    111  CB        -3.8610   10.2090   61.6910 C.3   295  GLU295      0.0388
    112  CG        -2.3480   10.4910   61.7460 C.3   295  GLU295      0.1160
    113  CD        -1.7720   10.3510   63.1620 C.2   295  GLU295      0.3649
    114  OE1       -1.6030   11.3750   63.8700 O.co2 295  GLU295     -0.2457
    115  OE2       -1.5030    9.1990   63.5700 O.co2 295  GLU295     -0.2457
    116  N          6.6580    7.8160   55.4070 N.3   381  TRP381     -0.1241
    117  CA         5.8060    7.9760   56.5930 C.3   381  TRP381      0.1605
    118  C          5.7190    9.4480   57.0330 C.2   381  TRP381      0.2264
    119  O          4.7150    9.8710   57.5980 O.2   381  TRP381     -0.2867
    120  CB         6.3090    7.0900   57.7510 C.3   381  TRP381      0.0550
    121  CG         5.9500    5.6050   57.6210 C.ar  381  TRP381      0.0003
    122  CD1        6.2880    4.7640   56.6000 C.ar  381  TRP381      0.0946
    123  CD2        5.1650    4.8220   58.5390 C.ar  381  TRP381      0.0152
    124  NE1        5.7590    3.5080   56.8180 N.ar  381  TRP381     -0.2442
    125  CE2        5.0680    3.5170   57.9980 C.ar  381  TRP381      0.0810
    126  CE3        4.5370    5.0960   59.7610 C.ar  381  TRP381      0.0012
    127  CZ2        4.3680    2.4840   58.6380 C.ar  381  TRP381      0.0191
    128  CZ3        3.8370    4.0630   60.4070 C.ar  381  TRP381      0.0001
    129  CH2        3.7600    2.7720   59.8360 C.ar  381  TRP381      0.0015
    130  N          8.4560   -3.1490   66.5610 N.3   409  TYR409     -0.1241
    131  CA         7.2410   -3.9230   66.3890 C.3   409  TYR409      0.1605
    132  C          7.5230   -5.2650   67.0440 C.2   409  TYR409      0.2264
    133  O          8.6610   -5.7010   67.1030 O.2   409  TYR409     -0.2867
    134  CB         6.9550   -4.1680   64.9170 C.3   409  TYR409      0.0534
    135  CG         6.4870   -2.9620   64.1720 C.ar  409  TYR409     -0.0201
    136  CD1        5.3310   -2.2900   64.5560 C.ar  409  TYR409     -0.0009
    137  CD2        7.1840   -2.5070   63.0610 C.ar  409  TYR409     -0.0009
    138  CE1        4.8750   -1.1880   63.8500 C.ar  409  TYR409      0.0417
    139  CE2        6.7490   -1.4060   62.3370 C.ar  409  TYR409      0.0417
    140  CZ         5.5910   -0.7570   62.7380 C.ar  409  TYR409      0.1957
    141  OH         5.1510    0.3220   62.0100 O.3   409  TYR409     -0.2866
@<TRIPOS>BOND
     1   116   117    1
     2   117   118    1
     3   117   120    1
     4   122   124   ar
     5   122   121   ar
     6   124   125   ar
     7   118   119    2
     8   121   120    1
     9   121   123   ar
    10   125   123   ar
    11   125   127   ar
    12   123   126   ar
    13   127   129   ar
    14   106   105    1
    15   126   128   ar
    16   129   128   ar
    17   107   108    1
    18   110   109    2
    19   105   104    1
    20   108   109    1
    21   108   111    1
    22   104   103    1
    23   111   112    1
    24   112   113    1
    25   102   101    2
    26   141   140    1
    27   103   100    1
    28   101   100    1
    29   139   140   ar
    30   139   137   ar
    31   140   138   ar
    32     1     2    1
    33   137   135   ar
    34   100    99    1
    35     3     4    2
    36     3     2    1
    37   113   115   ar
    38   113   114   ar
    39     2     5    1
    40   138   136   ar
    41    99    89   am
    42   135   136   ar
    43   135   134    1
    44   134   131    1
    45     5     6    1
    46    93    95   ar
    47    93    92   ar
    48    95    97   ar
    49    89    90    2
    50    89    88    1
    51    91    92    1
    52    91    88    1
    53    92    94   ar
    54    97    98    1
    55    97    96   ar
    56    21    19   am
    57    88    87    1
    58   131   130    1
    59   131   132    1
    60    51    50    1
    61   132   133    2
    62    94    96   ar
    63    12    11    1
    64    50    49    1
    65    19    20    2
    66    19    18    1
    67    76    75    2
    68    43    41   am
    69    11     8    1
    70    87    75   am
    71    49    48    1
    72    75    74    1
    73    18    17    1
    74    35    33    1
    75    79    81   ar
    76    79    78   ar
    77    81    82   ar
    78    42    41    2
    79    41    40    1
    80    26    27    1
    81    26    23    1
    82     8     9    1
    83     8     7    1
    84    27    28    1
    85    34    33    1
    86    17    14    1
    87    48    45    1
    88     9    10    2
    89     9    13   am
    90    78    77    1
    91    78    80   ar
    92    33    30    1
    93    74    77    1
    94    74    73    1
    95    82    84   ar
    96    82    80   ar
    97    23    22    1
    98    23    24    1
    99    39    38    2
   100    40    37    1
   101    13    14    1
   102    62    60   ar
   103    62    61   ar
   104    60    58   ar
   105    45    44    1
   106    45    46    1
   107    73    71   am
   108    28    22    1
   109    84    86   ar
   110    38    44   am
   111    38    37    1
   112    14    15    1
   113    80    83   ar
   114    30    29    1
   115    30    31    1
   116    24    25    2
   117    37    36    1
   118    61    59   ar
   119    46    47    2
   120    71    70    1
   121    71    72    2
   122    58    57   ar
   123    86    85   ar
   124    15    16    2
   125    31    32    2
   126    70    69    1
   127    83    85   ar
   128    69    65   am
   129    59    57   ar
   130    57    56    1
   131    55    54    2
   132    65    64    1
   133    65    66    2
   134    64    67    1
   135    64    63    1
   136    54    63   am
   137    54    53    1
   138    67    68    1
   139    56    53    1
   140    53    52    1
