@<TRIPOS>MOLECULE
tmp/1d2eD00.pdb
 128 124 0 0 0
SMALL
GASTEIGER

@<TRIPOS>ATOM
      1  N          5.9260   48.9830   48.4820 N.3    12  VAL12      -0.1231
      2  CA         5.0460   49.8580   47.7180 C.3    12  VAL12       0.1692
      3  C          5.6790   50.3540   46.4260 C.2    12  VAL12       0.2592
      4  O          6.8570   50.7100   46.3840 O.2    12  VAL12      -0.2718
      5  CB         4.6020   51.0700   48.5510 C.3    12  VAL12       0.0266
      6  CG1        5.8110   51.8710   48.9930 C.3    12  VAL12       0.0020
      7  CG2        3.6460   51.9310   47.7340 C.3    12  VAL12       0.0020
      8  N          4.8690   50.3560   45.3720 N.am   13  ASP13      -0.1960
      9  CA         5.2750   50.8020   44.0460 C.3    13  ASP13       0.1840
     10  C          6.2530   49.8820   43.3240 C.2    13  ASP13       0.2622
     11  O          6.9460   50.3190   42.4040 O.2    13  ASP13      -0.2715
     12  CB         5.8550   52.2200   44.1100 C.3    13  ASP13       0.1450
     13  CG         4.8550   53.2370   44.6460 C.2    13  ASP13       0.3671
     14  OD1        3.7110   53.2830   44.1330 O.co2  13  ASP13      -0.2456
     15  OD2        5.2130   53.9980   45.5720 O.co2  13  ASP13      -0.2456
     16  N          6.3260   48.6170   43.7340 N.am   14  HIS14      -0.1959
     17  CA         7.2180   47.6910   43.0480 C.3    14  HIS14       0.1787
     18  C          6.4890   46.9930   41.9210 C.2    14  HIS14       0.2621
     19  O          7.0820   46.2160   41.1690 O.2    14  HIS14      -0.2715
     20  CB         7.8410   46.6660   44.0040 C.3    14  HIS14       0.0785
     21  CG         8.9840   47.2130   44.8020 C.ar   14  HIS14       0.0821
     22  ND1        9.9590   46.4110   45.3560 N.ar   14  HIS14      -0.2267
     23  CD2        9.3140   48.4860   45.1320 C.ar   14  HIS14       0.1154
     24  CE1       10.8400   47.1640   45.9880 C.ar   14  HIS14       0.1986
     25  NE2       10.4730   48.4270   45.8690 N.ar   14  HIS14      -0.2212
     26  N          5.1950   47.2830   41.8070 N.am   15  GLY15      -0.1940
     27  CA         4.4010   46.7150   40.7340 C.3    15  GLY15       0.2014
     28  C          3.4530   45.5910   41.0900 C.2    15  GLY15       0.2639
     29  O          3.1330   44.7640   40.2360 O.2    15  GLY15      -0.2714
     30  N          2.9940   45.5510   42.3350 N.am   16  LYS16      -0.1963
     31  CA         2.0840   44.4920   42.7460 C.3    16  LYS16       0.1728
     32  C          0.7590   44.5840   41.9990 C.2    16  LYS16       0.2617
     33  O          0.2810   43.6050   41.4300 O.2    16  LYS16      -0.2715
     34  CB         1.8390   44.5520   44.2570 C.3    16  LYS16       0.0311
     35  CG         3.0820   44.2520   45.0980 C.3    16  LYS16       0.0038
     36  CD         2.7660   44.1630   46.5870 C.3    16  LYS16       0.0206
     37  CE         2.2410   45.4750   47.1310 C.3    16  LYS16       0.1093
     38  NZ         3.1630   46.6120   46.8280 N.3    16  LYS16      -0.1314
     39  N          0.1780   45.7750   41.9970 N.am   17  THR17      -0.1937
     40  CA        -1.0970   45.9940   41.3370 C.3    17  THR17       0.2028
     41  C         -0.9660   45.8060   39.8250 C.2    17  THR17       0.2642
     42  O         -1.8090   45.1670   39.1960 O.2    17  THR17      -0.2714
     43  CB        -1.6200   47.3970   41.6600 C.3    17  THR17       0.1808
     44  OG1       -1.7110   47.5470   43.0870 O.3    17  THR17      -0.2208
     45  CG2       -2.9990   47.6080   41.0390 C.3    17  THR17       0.0379
     46  N          0.1020   46.3500   39.2500 N.am   18  THR18      -0.1950
     47  CA         0.3430   46.2190   37.8170 C.3    18  THR18       0.1897
     48  C          0.4260   44.7440   37.4540 C.2    18  THR18       0.2313
     49  O         -0.1450   44.3070   36.4530 O.2    18  THR18      -0.2863
     50  CB         1.6610   46.9120   37.4050 C.3    18  THR18       0.1794
     51  OG1        1.5470   48.3220   37.6310 O.3    18  THR18      -0.2208
     52  CG2        1.9750   46.6560   35.9350 C.3    18  THR18       0.0378
     53  N         -6.0860   47.9280   36.0590 N.3    38  TYR38      -0.1241
     54  CA        -5.1840   48.4830   37.0610 C.3    38  TYR38       0.1605
     55  C         -5.8820   49.4400   38.0240 C.2    38  TYR38       0.2264
     56  O         -5.7980   49.2710   39.2370 O.2    38  TYR38      -0.2867
     57  CB        -4.0310   49.2100   36.3600 C.3    38  TYR38       0.0534
     58  CG        -3.1000   49.9450   37.2970 C.ar   38  TYR38      -0.0201
     59  CD1       -2.2270   49.2520   38.1360 C.ar   38  TYR38      -0.0009
     60  CD2       -3.1250   51.3370   37.3770 C.ar   38  TYR38      -0.0009
     61  CE1       -1.4030   49.9290   39.0370 C.ar   38  TYR38       0.0417
     62  CE2       -2.3090   52.0230   38.2720 C.ar   38  TYR38       0.0417
     63  CZ        -1.4500   51.3140   39.0980 C.ar   38  TYR38       0.1957
     64  OH        -0.6370   51.9960   39.9760 O.3    38  TYR38      -0.2866
     65  N         -6.1080   48.8850   41.5890 N.3    42  ASP42      -0.1239
     66  CA        -5.3560   49.9150   42.3030 C.3    42  ASP42       0.1674
     67  C         -6.2200   50.6560   43.3170 C.2    42  ASP42       0.2266
     68  O         -5.7070   51.2090   44.2910 O.2    42  ASP42      -0.2867
     69  CB        -4.7330   50.8970   41.3040 C.3    42  ASP42       0.1410
     70  CG        -3.8790   51.9500   41.9790 C.2    42  ASP42       0.3668
     71  OD1       -2.9810   51.5740   42.7600 O.co2  42  ASP42      -0.2456
     72  OD2       -4.1020   53.1530   41.7240 O.co2  42  ASP42      -0.2456
     73  N         -3.3550   48.0600   48.4660 N.3    74  PRO74      -0.2116
     74  CA        -2.6890   49.3280   48.1580 C.3    74  PRO74       0.1372
     75  C         -1.4630   49.6500   49.0120 C.2    74  PRO74       0.2244
     76  O         -0.3280   49.5630   48.5380 O.2    74  PRO74      -0.2868
     77  CB        -3.8150   50.3460   48.3480 C.3    74  PRO74       0.0268
     78  CG        -5.0410   49.5340   47.9420 C.3    74  PRO74       0.0207
     79  CD        -4.7720   48.3080   48.7790 C.3    74  PRO74       0.0892
     80  N         10.1940   42.4370   39.1800 N.3   127  ASN127     -0.1225
     81  CA         9.5340   43.3410   38.2480 C.3   127  ASN127      0.1785
     82  C         10.4180   44.4690   37.7120 C.2   127  ASN127      0.2597
     83  O         11.5590   44.6380   38.1340 O.2   127  ASN127     -0.2718
     84  CB         8.2900   43.9190   38.9310 C.3   127  ASN127      0.1169
     85  CG         7.3480   44.5970   37.9580 C.2   127  ASN127      0.2627
     86  OD1        7.0210   44.0370   36.9140 O.2   127  ASN127     -0.2716
     87  ND2        6.8860   45.7980   38.3070 N.am  127  ASN127     -0.0877
     88  N          9.8700   45.2240   36.7650 N.am  128  LYS128     -0.1980
     89  CA        10.5580   46.3510   36.1480 C.3   128  LYS128      0.1596
     90  C         11.9130   45.9830   35.5490 C.2   128  LYS128      0.2287
     91  O         12.8790   46.7370   35.6750 O.2   128  LYS128     -0.2864
     92  CB        10.7320   47.4810   37.1650 C.3   128  LYS128      0.0298
     93  CG         9.4320   47.8920   37.8460 C.3   128  LYS128      0.0038
     94  CD         9.5980   49.1610   38.6690 C.3   128  LYS128      0.0206
     95  CE         8.2810   49.5720   39.3100 C.3   128  LYS128      0.1093
     96  NZ         8.3910   50.8530   40.0650 N.3   128  LYS128     -0.1314
     97  N         12.4720   46.0400   32.6820 N.3   130  ASP130     -0.1225
     98  CA        12.5530   46.9590   31.5560 C.3   130  ASP130      0.1805
     99  C         13.2270   48.2650   31.9740 C.2   130  ASP130      0.2597
    100  O         13.8020   48.9660   31.1410 O.2   130  ASP130     -0.2718
    101  CB        11.1480   47.2490   31.0200 C.3   130  ASP130      0.1424
    102  CG        10.1980   47.7250   32.1060 C.2   130  ASP130      0.3668
    103  OD1        9.9410   46.9490   33.0520 O.co2 130  ASP130     -0.2456
    104  OD2        9.7120   48.8730   32.0210 O.co2 130  ASP130     -0.2456
    105  N         13.1520   48.5890   33.2620 N.am  131  ALA131     -0.1979
    106  CA        13.7600   49.8140   33.7790 C.3   131  ALA131      0.1597
    107  C         15.2320   49.5830   34.1090 C.2   131  ALA131      0.2287
    108  O         15.9880   50.5280   34.3440 O.2   131  ALA131     -0.2864
    109  CB        13.0140   50.2900   35.0210 C.3   131  ALA131      0.0319
    110  N          8.5510   42.4260   33.1520 N.3   165  SER165     -0.1202
    111  CA         7.9170   43.7340   33.2440 C.3   165  SER165      0.2020
    112  C          6.3990   43.5730   33.2610 C.2   165  SER165      0.2619
    113  O          5.7780   43.2850   32.2340 O.2   165  SER165     -0.2717
    114  CB         8.3320   44.6010   32.0540 C.3   165  SER165      0.2103
    115  OG         7.7160   45.8750   32.1090 O.3   165  SER165     -0.2182
    116  N          5.8050   43.7540   34.4350 N.am  166  ALA166     -0.1965
    117  CA         4.3630   43.6310   34.5820 C.3   166  ALA166      0.1728
    118  C          3.6680   44.6850   33.7270 C.2   166  ALA166      0.2616
    119  O          2.5280   44.5000   33.2990 O.2   166  ALA166     -0.2715
    120  CB         3.9740   43.8030   36.0420 C.3   166  ALA166      0.0334
    121  N          4.3670   45.7900   33.4800 N.am  167  LEU167     -0.1977
    122  CA         3.8150   46.8810   32.6870 C.3   167  LEU167      0.1596
    123  C          3.7600   46.4780   31.2200 C.2   167  LEU167      0.2287
    124  O          2.8160   46.8200   30.5110 O.2   167  LEU167     -0.2864
    125  CB         4.6740   48.1340   32.8500 C.3   167  LEU167      0.0297
    126  CG         4.1080   49.4530   32.3300 C.3   167  LEU167      0.0022
    127  CD1        2.8370   49.7970   33.1000 C.3   167  LEU167      0.0001
    128  CD2        5.1440   50.5560   32.5020 C.3   167  LEU167      0.0001
@<TRIPOS>BOND
     1   124   123    2
     2   101    98    1
     3   101   102    1
     4   100    99    2
     5   123   122    1
     6    98    99    1
     7    98    97    1
     8    99   105   am
     9   104   102   ar
    10   114   115    1
    11   114   111    1
    12   102   103   ar
    13   113   112    2
    14   126   128    1
    15   126   125    1
    16   126   127    1
    17   122   125    1
    18   122   121    1
    19   110   111    1
    20   111   112    1
    21   112   116   am
    22   105   106    1
    23   119   118    2
    24   121   118   am
    25   118   117    1
    26   106   107    1
    27   106   109    1
    28   107   108    2
    29   116   117    1
    30   117   120    1
    31    90    91    2
    32    90    89    1
    33    52    50    1
    34    53    54    1
    35    89    88    1
    36    89    92    1
    37    57    54    1
    38    57    58    1
    39    49    48    2
    40    88    82   am
    41    86    85    2
    42    54    55    1
    43    92    93    1
    44    58    60   ar
    45    58    59   ar
    46    60    62   ar
    47    50    51    1
    48    50    47    1
    49    48    47    1
    50    82    83    2
    51    82    81    1
    52    47    46    1
    53    93    94    1
    54    85    87   am
    55    85    84    1
    56    55    56    2
    57    59    61   ar
    58    81    84    1
    59    81    80    1
    60    62    63   ar
    61    94    95    1
    62    61    63   ar
    63    63    64    1
    64    42    41    2
    65    46    41   am
    66    95    96    1
    67    41    40    1
    68    29    28    2
    69    27    28    1
    70    27    26    1
    71    45    43    1
    72    28    30   am
    73    19    18    2
    74    69    70    1
    75    69    66    1
    76    40    43    1
    77    40    39    1
    78    33    32    2
    79    65    66    1
    80    43    44    1
    81    72    70   ar
    82    26    18   am
    83    18    17    1
    84    70    71   ar
    85    39    32   am
    86    32    31    1
    87    66    67    1
    88    30    31    1
    89    11    10    2
    90    31    34    1
    91    17    16    1
    92    17    20    1
    93    67    68    2
    94    10    16   am
    95    10     9    1
    96    20    21    1
    97     9    12    1
    98     9     8    1
    99    12    13    1
   100    14    13   ar
   101    34    35    1
   102    13    15   ar
   103    21    23   ar
   104    21    22   ar
   105    35    36    1
   106    23    25   ar
   107    22    24   ar
   108     8     3   am
   109    25    24   ar
   110     4     3    2
   111     3     2    1
   112    36    37    1
   113    38    37    1
   114     2     1    1
   115     2     5    1
   116     7     5    1
   117    78    77    1
   118    78    79    1
   119    74    77    1
   120    74    73    1
   121    74    75    1
   122    73    79    1
   123    76    75    2
   124     5     6    1
