@<TRIPOS>MOLECULE
tmp/1d2fB00.pdb
 127 119 0 0 0
SMALL
GASTEIGER

@<TRIPOS>ATOM
      1  N        -44.3310  -10.4810  -40.7450 N.3    14  SER14      -0.1217
      2  CA       -43.2740   -9.9540  -41.6010 C.3    14  SER14       0.1889
      3  C        -41.8740  -10.5630  -41.5700 C.2    14  SER14       0.2288
      4  O        -41.1660  -10.4620  -42.5640 O.2    14  SER14      -0.2866
      5  CB       -43.1480   -8.4560  -41.3260 C.3    14  SER14       0.2089
      6  OG       -44.4290   -7.8710  -41.1340 O.3    14  SER14      -0.2183
      7  N        -35.0040    3.0560  -37.6900 N.3    73  SER73      -0.1202
      8  CA       -35.8160    2.1090  -38.4380 C.3    73  SER73       0.2020
      9  C        -36.1880    2.7840  -39.7340 C.2    73  SER73       0.2619
     10  O        -36.0880    3.9980  -39.8390 O.2    73  SER73      -0.2717
     11  CB       -37.1000    1.7740  -37.6700 C.3    73  SER73       0.2103
     12  OG       -37.9890    2.8840  -37.6710 O.3    73  SER73      -0.2182
     13  N        -36.6250    2.0120  -40.7220 N.am   74  VAL74      -0.1965
     14  CA       -37.0260    2.6080  -41.9900 C.3    74  VAL74       0.1727
     15  C        -38.2480    3.5190  -41.8350 C.2    74  VAL74       0.2616
     16  O        -38.2890    4.6260  -42.4010 O.2    74  VAL74      -0.2715
     17  CB       -37.3310    1.5240  -43.0430 C.3    74  VAL74       0.0290
     18  CG1      -38.0030    2.1430  -44.2750 C.3    74  VAL74       0.0023
     19  CG2      -36.0450    0.8360  -43.4470 C.3    74  VAL74       0.0023
     20  N        -39.2360    3.0770  -41.0630 N.am   75  ILE75      -0.1977
     21  CA       -40.4400    3.8720  -40.8780 C.3    75  ILE75       0.1596
     22  C        -40.1760    5.2200  -40.1920 C.2    75  ILE75       0.2287
     23  O        -40.8470    6.2150  -40.4720 O.2    75  ILE75      -0.2864
     24  CB       -41.5070    3.0800  -40.1070 C.3    75  ILE75       0.0276
     25  CG1      -41.8390    1.7800  -40.8590 C.3    75  ILE75       0.0022
     26  CG2      -42.7600    3.9260  -39.9400 C.3    75  ILE75       0.0022
     27  CD1      -42.4180    1.9980  -42.2180 C.3    75  ILE75       0.0001
     28  N        -48.2840   -1.7090  -47.3910 N.3    99  TYR99      -0.1241
     29  CA       -47.7890   -2.1630  -46.1100 C.3    99  TYR99       0.1605
     30  C        -48.4610   -1.2860  -45.0540 C.2    99  TYR99       0.2264
     31  O        -48.3720   -0.0600  -45.0900 O.2    99  TYR99      -0.2867
     32  CB       -46.2800   -1.9900  -46.0830 C.3    99  TYR99       0.0534
     33  CG       -45.6080   -2.3010  -44.7700 C.ar   99  TYR99      -0.0201
     34  CD1      -45.7300   -3.5570  -44.1730 C.ar   99  TYR99      -0.0009
     35  CD2      -44.8060   -1.3590  -44.1510 C.ar   99  TYR99      -0.0009
     36  CE1      -45.0560   -3.8600  -42.9880 C.ar   99  TYR99       0.0417
     37  CE2      -44.1330   -1.6520  -42.9710 C.ar   99  TYR99       0.0417
     38  CZ       -44.2600   -2.8960  -42.4010 C.ar   99  TYR99       0.1957
     39  OH       -43.5760   -3.1640  -41.2550 O.3    99  TYR99      -0.2866
     40  N        -47.4290    2.2320  -43.5060 N.3   102  PHE102     -0.1241
     41  CA       -47.4730    3.4630  -44.2880 C.3   102  PHE102      0.1605
     42  C        -48.6480    4.3370  -43.8730 C.2   102  PHE102      0.2264
     43  O        -48.5080    5.5580  -43.7840 O.2   102  PHE102     -0.2867
     44  CB       -47.5650    3.1660  -45.7980 C.3   102  PHE102      0.0534
     45  CG       -46.2950    2.6070  -46.3920 C.ar  102  PHE102     -0.0203
     46  CD1      -46.2630    2.1680  -47.7120 C.ar  102  PHE102     -0.0042
     47  CD2      -45.1300    2.5140  -45.6340 C.ar  102  PHE102     -0.0042
     48  CE1      -45.0910    1.6460  -48.2620 C.ar  102  PHE102     -0.0003
     49  CE2      -43.9500    1.9890  -46.1760 C.ar  102  PHE102     -0.0003
     50  CZ       -43.9320    1.5580  -47.4860 C.ar  102  PHE102     -0.0000
     51  N        -42.8740    1.8110  -52.5880 N.3   147  CYS147     -0.1235
     52  CA       -42.4010    0.5420  -52.0200 C.3   147  CYS147      0.1677
     53  C        -41.8180   -0.2270  -53.2040 C.2   147  CYS147      0.2270
     54  O        -42.5490   -0.6650  -54.0850 O.2   147  CYS147     -0.2867
     55  CB       -43.5580   -0.2340  -51.3950 C.3   147  CYS147      0.0956
     56  SG       -43.0350   -1.6050  -50.3380 S.3   147  CYS147     -0.0801
     57  N        -44.5600   -4.4860  -51.6030 N.3   151  ASN151     -0.1240
     58  CA       -45.0890   -5.4090  -50.6060 C.3   151  ASN151      0.1653
     59  C        -46.5820   -5.0540  -50.4970 C.2   151  ASN151      0.2266
     60  O        -46.9260   -3.8780  -50.2950 O.2   151  ASN151     -0.2867
     61  CB       -44.3870   -5.1610  -49.2740 C.3   151  ASN151      0.1155
     62  CG       -45.0190   -5.9170  -48.1240 C.2   151  ASN151      0.2627
     63  OD1      -45.8490   -6.7850  -48.3380 O.2   151  ASN151     -0.2716
     64  ND2      -44.6150   -5.5970  -46.8940 N.am  151  ASN151     -0.0877
     65  N        -38.8140    3.0330  -50.4850 N.3   179  ASP179     -0.1239
     66  CA       -38.5850    2.0680  -49.4080 C.3   179  ASP179      0.1674
     67  C        -38.1960    0.8040  -50.1380 C.2   179  ASP179      0.2266
     68  O        -39.0250    0.1560  -50.7570 O.2   179  ASP179     -0.2867
     69  CB       -39.8840    1.9010  -48.5960 C.3   179  ASP179      0.1410
     70  CG       -39.7980    0.8250  -47.5320 C.2   179  ASP179      0.3668
     71  OD1      -40.7680    0.7140  -46.7660 O.co2 179  ASP179     -0.2456
     72  OD2      -38.7960    0.0880  -47.4570 O.co2 179  ASP179     -0.2456
     73  N        -36.5250   -1.9480  -48.7540 N.3   181  ILE181     -0.1231
     74  CA       -36.0940   -2.9480  -47.8040 C.3   181  ILE181      0.1692
     75  C        -36.1720   -4.3980  -48.3010 C.2   181  ILE181      0.2592
     76  O        -35.5650   -5.3090  -47.7030 O.2   181  ILE181     -0.2718
     77  CB       -36.8670   -2.7830  -46.4840 C.3   181  ILE181      0.0266
     78  CG1      -36.2210   -3.6290  -45.4000 C.3   181  ILE181      0.0019
     79  CG2      -38.3260   -3.1430  -46.6760 C.3   181  ILE181      0.0020
     80  CD1      -36.5960   -3.1620  -44.0130 C.3   181  ILE181      0.0001
     81  N        -36.9160   -4.6250  -49.3780 N.am  182  HIS182     -0.1976
     82  CA       -36.9980   -5.9680  -49.9530 C.3   182  HIS182      0.1656
     83  C        -36.0740   -6.1770  -51.1590 C.2   182  HIS182      0.2291
     84  O        -36.1240   -7.2280  -51.7930 O.2   182  HIS182     -0.2864
     85  CB       -38.4280   -6.2860  -50.3700 C.3   182  HIS182      0.0771
     86  CG       -39.3230   -6.5690  -49.2140 C.ar  182  HIS182      0.0820
     87  ND1      -40.0810   -5.5920  -48.6060 N.ar  182  HIS182     -0.2267
     88  CD2      -39.4570   -7.6760  -48.4510 C.ar  182  HIS182      0.1154
     89  CE1      -40.6290   -6.0820  -47.5110 C.ar  182  HIS182      0.1986
     90  NE2      -40.2650   -7.3430  -47.3940 N.ar  182  HIS182     -0.2212
     91  N        -32.2750   -1.4660  -45.2550 N.3   208  SER208     -0.1217
     92  CA       -31.6670   -2.0810  -44.0990 C.3   208  SER208      0.1889
     93  C        -31.4210   -3.5310  -44.4850 C.2   208  SER208      0.2288
     94  O        -31.8650   -3.9700  -45.5300 O.2   208  SER208     -0.2866
     95  CB       -32.6400   -2.0090  -42.9220 C.3   208  SER208      0.2089
     96  OG       -32.4080   -3.0630  -42.0210 O.3   208  SER208     -0.2183
     97  N        -32.2500   -5.8110  -42.2790 N.3   210  SER210     -0.1202
     98  CA       -33.1360   -6.5260  -41.3530 C.3   210  SER210      0.2020
     99  C        -34.0800   -7.5450  -42.0040 C.2   210  SER210      0.2618
    100  O        -34.3130   -8.6050  -41.4380 O.2   210  SER210     -0.2717
    101  CB       -33.9460   -5.5430  -40.5080 C.3   210  SER210      0.2103
    102  OG       -34.8650   -4.8140  -41.2940 O.3   210  SER210     -0.2182
    103  N        -34.6200   -7.2440  -43.1790 N.am  211  LYS211     -0.1979
    104  CA       -35.5260   -8.1840  -43.8210 C.3   211  LYS211      0.1596
    105  C        -34.7780   -9.3310  -44.5020 C.2   211  LYS211      0.2287
    106  O        -35.2220  -10.4820  -44.4430 O.2   211  LYS211     -0.2864
    107  CB       -36.3970   -7.4500  -44.8340 C.3   211  LYS211      0.0298
    108  CG       -37.8880   -7.7140  -44.7050 C.3   211  LYS211      0.0038
    109  CD       -38.3220   -7.6830  -43.2830 C.3   211  LYS211      0.0206
    110  CE       -39.7990   -7.4300  -43.1400 C.3   211  LYS211      0.1093
    111  NZ       -40.0900   -6.0640  -43.6210 N.3   211  LYS211     -0.1314
    112  N        -34.1650   -7.9250  -37.5330 N.3   216  PRO216     -0.2116
    113  CA       -34.8620   -6.7110  -37.1040 C.3   216  PRO216      0.1372
    114  C        -34.7020   -6.3920  -35.6190 C.2   216  PRO216      0.2244
    115  O        -34.6920   -5.2180  -35.2310 O.2   216  PRO216     -0.2868
    116  CB       -36.3160   -6.9860  -37.5030 C.3   216  PRO216      0.0268
    117  CG       -36.4370   -8.4490  -37.3470 C.3   216  PRO216      0.0207
    118  CD       -35.1250   -8.9700  -37.9300 C.3   216  PRO216      0.0892
    119  N        -31.8890   -0.5610  -36.4740 N.3   220  GLY220     -0.1210
    120  CA       -30.9760    0.0490  -37.4170 C.3   220  GLY220      0.1956
    121  C        -31.4760   -0.0150  -38.8450 C.2   220  GLY220      0.2611
    122  O        -32.1520   -0.9610  -39.2570 O.2   220  GLY220     -0.2717
    123  N        -31.1490    1.0160  -39.6100 N.am  221  ALA221     -0.1979
    124  CA       -31.5240    1.0880  -41.0070 C.3   221  ALA221      0.1597
    125  C        -30.6010    2.1690  -41.5230 C.2   221  ALA221      0.2287
    126  O        -29.8970    2.7930  -40.7260 O.2   221  ALA221     -0.2864
    127  CB       -32.9810    1.5030  -41.1510 C.3   221  ALA221      0.0319
@<TRIPOS>BOND
     1    54    53    2
     2    53    52    1
     3    51    52    1
     4    52    55    1
     5    84    83    2
     6    57    58    1
     7    55    56    1
     8    83    82    1
     9    68    67    2
    10    58    59    1
    11    58    61    1
    12    59    60    2
    13    65    66    1
    14    85    82    1
    15    85    86    1
    16    67    66    1
    17    82    81    1
    18    66    69    1
    19    81    75   am
    20    61    62    1
    21    86    87   ar
    22    86    88   ar
    23    73    74    1
    24    87    89   ar
    25    69    70    1
    26    88    90   ar
    27    63    62    2
    28    75    74    1
    29    75    76    2
    30    48    46   ar
    31    48    50   ar
    32    62    64   am
    33    74    77    1
    34    46    45   ar
    35    70    72   ar
    36    70    71   ar
    37    89    90   ar
    38    50    49   ar
    39    28    29    1
    40    79    77    1
    41    77    78    1
    42    45    44    1
    43    45    47   ar
    44    49    47   ar
    45    29    32    1
    46    29    30    1
    47    32    33    1
    48    44    41    1
    49    94    93    2
    50    78    80    1
    51    91    92    1
    52    31    30    2
    53   107   108    1
    54   107   104    1
    55    33    34   ar
    56    33    35   ar
    57   108   109    1
    58   105   106    2
    59   105   104    1
    60    93    92    1
    61    41    42    1
    62    41    40    1
    63    18    17    1
    64    34    36   ar
    65    35    37   ar
    66    92    95    1
    67    42    43    2
    68   104   103    1
    69   111   110    1
    70    19    17    1
    71   109   110    1
    72   103    99   am
    73    17    14    1
    74    36    38   ar
    75    37    38   ar
    76    95    96    1
    77     4     3    2
    78    16    15    2
    79    38    39    1
    80    97    98    1
    81    27    25    1
    82    99   100    2
    83    99    98    1
    84    14    15    1
    85    14    13    1
    86    15    20   am
    87     2     3    1
    88     2     5    1
    89     2     1    1
    90   125   124    1
    91   125   126    2
    92    98   101    1
    93     5     6    1
    94   102   101    1
    95   127   124    1
    96    20    21    1
    97   124   123    1
    98    21    22    1
    99    21    24    1
   100    25    24    1
   101    13     9   am
   102    23    22    2
   103    24    26    1
   104    10     9    2
   105     9     8    1
   106   123   121   am
   107   122   121    2
   108   121   120    1
   109     8     7    1
   110     8    11    1
   111   118   112    1
   112   118   117    1
   113    12    11    1
   114   112   113    1
   115   116   117    1
   116   116   113    1
   117   120   119    1
   118   113   114    1
   119   114   115    2
