@<TRIPOS>MOLECULE
tmp/1d2nA00.pdb
 180 176 0 0 0
SMALL
GASTEIGER

@<TRIPOS>ATOM
      1  N        -13.0540   34.7370    3.5860 N.3     6  TYR6       -0.1227
      2  CA       -12.5000   34.4540    4.9050 C.3     6  TYR6        0.1736
      3  C        -12.8750   35.4660    5.9830 C.2     6  TYR6        0.2595
      4  O        -12.5710   35.2620    7.1590 O.2     6  TYR6       -0.2718
      5  CB       -10.9740   34.3240    4.8290 C.3     6  TYR6        0.0548
      6  CG       -10.5180   33.1810    3.9540 C.ar    6  TYR6       -0.0200
      7  CD1      -10.4200   33.3250    2.5690 C.ar    6  TYR6       -0.0009
      8  CD2      -10.2330   31.9360    4.5080 C.ar    6  TYR6       -0.0009
      9  CE1      -10.0460   32.2520    1.7580 C.ar    6  TYR6        0.0417
     10  CE2       -9.8620   30.8600    3.7120 C.ar    6  TYR6        0.0417
     11  CZ        -9.7700   31.0240    2.3390 C.ar    6  TYR6        0.1957
     12  OH        -9.4020   29.9550    1.5590 O.3     6  TYR6       -0.2866
     13  N        -13.5220   36.5580    5.5850 N.am    7  ILE7       -0.1966
     14  CA       -13.9520   37.5830    6.5360 C.3     7  ILE7        0.1727
     15  C        -15.4080   37.8950    6.2020 C.2     7  ILE7        0.2616
     16  O        -15.7680   39.0350    5.9050 O.2     7  ILE7       -0.2715
     17  CB       -13.1080   38.8690    6.4040 C.3     7  ILE7        0.0290
     18  CG1      -11.6160   38.5230    6.4730 C.3     7  ILE7        0.0022
     19  CG2      -13.4590   39.8400    7.5350 C.3     7  ILE7        0.0023
     20  CD1      -10.6870   39.7160    6.3140 C.3     7  ILE7        0.0001
     21  N        -16.2400   36.8610    6.2610 N.am    8  MET8       -0.1963
     22  CA       -17.6550   36.9690    5.9270 C.3     8  MET8        0.1736
     23  C        -18.4840   37.9470    6.7520 C.2     8  MET8        0.2616
     24  O        -19.4650   38.4960    6.2530 O.2     8  MET8       -0.2715
     25  CB       -18.3040   35.5810    5.9750 C.3     8  MET8        0.0427
     26  CG       -17.6780   34.5800    5.0060 C.3     8  MET8        0.0599
     27  SD       -18.4970   32.9670    4.9810 S.3     8  MET8       -0.1393
     28  CE       -17.4960   32.0840    3.7680 C.3     8  MET8        0.0692
     29  N        -18.1040   38.1670    8.0060 N.am    9  ASN9       -0.1958
     30  CA       -18.8550   39.0860    8.8510 C.3     9  ASN9        0.1819
     31  C        -17.9950   40.1750    9.4860 C.2     9  ASN9        0.2622
     32  O        -18.1870   40.5380   10.6480 O.2     9  ASN9       -0.2715
     33  CB       -19.6180   38.3010    9.9230 C.3     9  ASN9        0.1195
     34  CG       -20.7180   37.4330    9.3330 C.2     9  ASN9        0.2630
     35  OD1      -21.6700   37.9410    8.7440 O.2     9  ASN9       -0.2716
     36  ND2      -20.5880   36.1180    9.4810 N.am    9  ASN9       -0.0877
     37  N        -17.0490   40.6860    8.7020 N.am   10  GLY10      -0.1940
     38  CA       -16.1690   41.7520    9.1510 C.3    10  GLY10       0.2014
     39  C        -15.2490   41.4590   10.3230 C.2    10  GLY10       0.2639
     40  O        -15.0910   40.3140   10.7440 O.2    10  GLY10      -0.2714
     41  N        -14.6250   42.5180   10.8320 N.am   11  ILE11      -0.1963
     42  CA       -13.7220   42.4330   11.9750 C.3    11  ILE11       0.1727
     43  C        -14.1730   43.5130   12.9580 C.2    11  ILE11       0.2616
     44  O        -13.6960   44.6470   12.9010 O.2    11  ILE11      -0.2715
     45  CB       -12.2580   42.7230   11.5690 C.3    11  ILE11       0.0290
     46  CG1      -11.7890   41.7280   10.4990 C.3    11  ILE11       0.0022
     47  CG2      -11.3580   42.6530   12.7950 C.3    11  ILE11       0.0023
     48  CD1      -11.7310   40.2770   10.9650 C.3    11  ILE11       0.0001
     49  N        -15.0910   43.1690   13.8560 N.am   12  ILE12      -0.1977
     50  CA       -15.5870   44.1560   14.8110 C.3    12  ILE12       0.1596
     51  C        -14.6680   44.2920   16.0190 C.2    12  ILE12       0.2287
     52  O        -14.1210   43.3080   16.5130 O.2    12  ILE12      -0.2864
     53  CB       -17.0180   43.8090   15.2840 C.3    12  ILE12       0.0276
     54  CG1      -17.0040   42.5840   16.2000 C.3    12  ILE12       0.0022
     55  CG2      -17.9020   43.5420   14.0700 C.3    12  ILE12       0.0022
     56  CD1      -18.3790   42.2050   16.7290 C.3    12  ILE12       0.0001
     57  N        -14.6680   44.3100   19.2670 N.3    14  TRP14      -0.1241
     58  CA       -15.3940   44.0100   20.4930 C.3    14  TRP14       0.1605
     59  C        -14.5820   44.2210   21.7650 C.2    14  TRP14       0.2264
     60  O        -15.1480   44.3650   22.8460 O.2    14  TRP14      -0.2867
     61  CB       -15.9480   42.5760   20.4730 C.3    14  TRP14       0.0550
     62  CG       -14.9530   41.4880   20.1550 C.ar   14  TRP14       0.0003
     63  CD1      -14.7630   40.8790   18.9460 C.ar   14  TRP14       0.0946
     64  CD2      -14.0250   40.8750   21.0630 C.ar   14  TRP14       0.0152
     65  NE1      -13.7770   39.9210   19.0450 N.ar   14  TRP14      -0.2442
     66  CE2      -13.3070   39.8980   20.3320 C.ar   14  TRP14       0.0810
     67  CE3      -13.7310   41.0540   22.4220 C.ar   14  TRP14       0.0012
     68  CZ2      -12.3120   39.1020   20.9170 C.ar   14  TRP14       0.0191
     69  CZ3      -12.7400   40.2630   23.0040 C.ar   14  TRP14       0.0001
     70  CH2      -12.0430   39.2980   22.2480 C.ar   14  TRP14       0.0015
     71  N         -8.6730   42.4100   20.0580 N.3    18  VAL18      -0.1245
     72  CA        -8.7650   42.5330   18.6050 C.3    18  VAL18       0.1561
     73  C         -7.7020   43.5000   18.0910 C.2    18  VAL18       0.2260
     74  O         -7.0130   43.2190   17.1090 O.2    18  VAL18      -0.2867
     75  CB       -10.1610   43.0390   18.1630 C.3    18  VAL18       0.0252
     76  CG1      -10.2010   43.1990   16.6540 C.3    18  VAL18       0.0019
     77  CG2      -11.2390   42.0580   18.6090 C.3    18  VAL18       0.0019
     78  N        -11.6270   27.3160   19.7870 N.3    49  PRO49      -0.2102
     79  CA       -12.3630   27.1680   18.5330 C.3    49  PRO49       0.1504
     80  C        -13.3140   28.3570   18.3960 C.2    49  PRO49       0.2576
     81  O        -13.8260   28.8600   19.3990 O.2    49  PRO49      -0.2718
     82  CB       -13.1330   25.8660   18.7530 C.3    49  PRO49       0.0282
     83  CG       -12.1870   25.0850   19.6510 C.3    49  PRO49       0.0208
     84  CD       -11.8820   26.1630   20.6650 C.3    49  PRO49       0.0893
     85  N        -13.5250   28.8190   17.1680 N.am   50  HIS50      -0.1962
     86  CA       -14.4680   29.9060   16.9060 C.3    50  HIS50       0.1787
     87  C        -14.0780   31.2920   17.4230 C.2    50  HIS50       0.2621
     88  O        -14.8990   32.2050   17.3910 O.2    50  HIS50      -0.2715
     89  CB       -15.8310   29.5280   17.5040 C.3    50  HIS50       0.0785
     90  CG       -16.2710   28.1370   17.1650 C.ar   50  HIS50       0.0821
     91  ND1      -16.9160   27.3230   18.0690 N.ar   50  HIS50      -0.2267
     92  CD2      -16.1480   27.4130   16.0270 C.ar   50  HIS50       0.1154
     93  CE1      -17.1690   26.1550   17.5050 C.ar   50  HIS50       0.1986
     94  NE2      -16.7140   26.1840   16.2660 N.ar   50  HIS50      -0.2212
     95  N        -12.8450   31.4670   17.8830 N.am   51  SER51      -0.1936
     96  CA       -12.4400   32.7700   18.4140 C.3    51  SER51       0.2055
     97  C        -12.1780   33.8370   17.3520 C.2    51  SER51       0.2644
     98  O        -12.0370   35.0050   17.6910 O.2    51  SER51      -0.2714
     99  CB       -11.2020   32.6360   19.3050 C.3    51  SER51       0.2130
    100  OG       -10.0590   32.2770   18.5520 O.3    51  SER51      -0.2179
    101  N        -12.1100   33.4370   16.0810 N.am   52  GLY52      -0.1939
    102  CA       -11.8890   34.3940   15.0020 C.3    52  GLY52       0.2014
    103  C        -10.4900   34.4100   14.4040 C.2    52  GLY52       0.2639
    104  O        -10.0660   35.4000   13.8090 O.2    52  GLY52      -0.2714
    105  N         -9.7810   33.2980   14.5360 N.am   53  LYS53      -0.1963
    106  CA        -8.4090   33.1950   14.0510 C.3    53  LYS53       0.1728
    107  C         -8.2360   33.3600   12.5380 C.2    53  LYS53       0.2617
    108  O         -7.4060   34.1450   12.0860 O.2    53  LYS53      -0.2715
    109  CB        -7.8290   31.8570   14.5140 C.3    53  LYS53       0.0311
    110  CG        -7.9680   31.6560   16.0310 C.3    53  LYS53       0.0038
    111  CD        -7.6180   30.2400   16.4680 C.3    53  LYS53       0.0206
    112  CE        -8.5750   29.2080   15.8820 C.3    53  LYS53       0.1093
    113  NZ        -9.9870   29.3370   16.3820 N.3    53  LYS53      -0.1314
    114  N         -9.0170   32.6280   11.7560 N.am   54  THR54      -0.1937
    115  CA        -8.9050   32.7080   10.2990 C.3    54  THR54       0.2028
    116  C         -9.1880   34.0970    9.7480 C.2    54  THR54       0.2642
    117  O         -8.4450   34.6020    8.9050 O.2    54  THR54      -0.2714
    118  CB        -9.8330   31.6810    9.6460 C.3    54  THR54       0.1808
    119  OG1       -9.3710   30.3750   10.0000 O.3    54  THR54      -0.2208
    120  CG2       -9.8290   31.8120    8.1270 C.3    54  THR54       0.0379
    121  N        -10.2580   34.7200   10.2270 N.am   55  ALA55      -0.1963
    122  CA       -10.6020   36.0570    9.7670 C.3    55  ALA55       0.1728
    123  C         -9.4970   37.0570   10.1180 C.2    55  ALA55       0.2616
    124  O         -9.1450   37.9210    9.3110 O.2    55  ALA55      -0.2715
    125  CB       -11.9300   36.4960   10.3840 C.3    55  ALA55       0.0334
    126  N         -8.9440   36.9530   11.3210 N.am   56  LEU56      -0.1977
    127  CA        -7.8860   37.8780   11.7100 C.3    56  LEU56       0.1596
    128  C         -6.6130   37.6460   10.9000 C.2    56  LEU56       0.2287
    129  O         -5.9130   38.5930   10.5440 O.2    56  LEU56      -0.2864
    130  CB        -7.6080   37.7680   13.2140 C.3    56  LEU56       0.0297
    131  CG        -8.6910   38.4180   14.0880 C.3    56  LEU56       0.0022
    132  CD1       -8.5070   38.0260   15.5480 C.3    56  LEU56       0.0001
    133  CD2       -8.6240   39.9400   13.9220 C.3    56  LEU56       0.0001
    134  N         -5.8920   26.5900    9.6480 N.3   108  ASP108     -0.1239
    135  CA        -6.4130   25.3780   10.2920 C.3   108  ASP108      0.1674
    136  C         -5.3960   24.2370   10.2010 C.2   108  ASP108      0.2266
    137  O         -5.6660   23.1880    9.6030 O.2   108  ASP108     -0.2867
    138  CB        -7.7160   24.9590    9.5980 C.3   108  ASP108      0.1410
    139  CG        -8.7770   24.4640   10.5740 C.2   108  ASP108      0.3668
    140  OD1       -8.4210   23.8960   11.6240 O.co2 108  ASP108     -0.2456
    141  OD2       -9.9760   24.6270   10.2740 O.co2 108  ASP108     -0.2456
    142  N         -6.5520   25.9040   16.5970 N.3   151  SER151     -0.1217
    143  CA        -7.3540   25.9320   17.8120 C.3   151  SER151      0.1889
    144  C         -6.6970   24.9140   18.7500 C.2   151  SER151      0.2288
    145  O         -7.1860   24.6680   19.8500 O.2   151  SER151     -0.2866
    146  CB        -8.7990   25.4920   17.5360 C.3   151  SER151      0.2089
    147  OG        -9.4280   26.3120   16.5650 O.3   151  SER151     -0.2183
    148  N        -22.7090   44.5620   16.3040 N.3   187  LEU187     -0.1245
    149  CA       -23.4240   43.6810   15.3890 C.3   187  LEU187      0.1561
    150  C        -24.8570   44.1820   15.2130 C.2   187  LEU187      0.2260
    151  O        -25.5530   43.7800   14.2800 O.2   187  LEU187     -0.2867
    152  CB       -23.4280   42.2520   15.9370 C.3   187  LEU187      0.0270
    153  CG       -22.0660   41.5530   15.9620 C.3   187  LEU187      0.0019
    154  CD1      -22.1410   40.2660   16.7680 C.3   187  LEU187      0.0001
    155  CD2      -21.6260   41.2790   14.5330 C.3   187  LEU187      0.0001
    156  N        -16.2180   34.7430   18.9080 N.3   211  ILE211     -0.1231
    157  CA       -17.0120   35.6290   18.0680 C.3   211  ILE211      0.1692
    158  C        -17.8190   34.8630   17.0250 C.2   211  ILE211      0.2591
    159  O        -18.9810   35.1820   16.7880 O.2   211  ILE211     -0.2718
    160  CB       -16.1150   36.7060   17.3840 C.3   211  ILE211      0.0266
    161  CG1      -16.9740   37.6600   16.5470 C.3   211  ILE211      0.0019
    162  CG2      -15.0490   36.0340   16.5190 C.3   211  ILE211      0.0020
    163  CD1      -18.0350   38.4290   17.3510 C.3   211  ILE211      0.0001
    164  N        -17.2290   33.8370   16.4170 N.am  212  LYS212     -0.1980
    165  CA       -17.9630   33.0830   15.4090 C.3   212  LYS212      0.1596
    166  C        -19.1340   32.3360   16.0450 C.2   212  LYS212      0.2287
    167  O        -20.2140   32.2480   15.4630 O.2   212  LYS212     -0.2864
    168  CB       -17.0460   32.0910   14.6840 C.3   212  LYS212      0.0298
    169  CG       -17.7290   31.4200   13.5010 C.3   212  LYS212      0.0038
    170  CD       -16.7800   30.5370   12.7060 C.3   212  LYS212      0.0206
    171  CE       -17.4840   29.9620   11.4850 C.3   212  LYS212      0.1093
    172  NZ       -16.5710   29.1190   10.6630 N.3   212  LYS212     -0.1314
    173  N        -22.0630   34.6630   16.7920 N.3   215  LEU215     -0.1245
    174  CA       -22.9070   34.9410   15.6320 C.3   215  LEU215      0.1561
    175  C        -24.0030   33.8930   15.4950 C.2   215  LEU215      0.2260
    176  O        -25.1480   34.2130   15.1760 O.2   215  LEU215     -0.2867
    177  CB       -22.0790   34.9610   14.3450 C.3   215  LEU215      0.0270
    178  CG       -20.9760   36.0150   14.2460 C.3   215  LEU215      0.0019
    179  CD1      -20.3080   35.9050   12.8900 C.3   215  LEU215      0.0001
    180  CD2      -21.5680   37.4060   14.4340 C.3   215  LEU215      0.0001
@<TRIPOS>BOND
     1    12    11    1
     2     9    11   ar
     3     9     7   ar
     4    11    10   ar
     5     7     6   ar
     6     1     2    1
     7    10     8   ar
     8    28    27    1
     9     6     8   ar
    10     6     5    1
    11     5     2    1
    12     2     3    1
    13    27    26    1
    14    26    25    1
    15    13     3   am
    16    13    14    1
    17    16    15    2
    18    22    25    1
    19    22    21    1
    20    22    23    1
    21     3     4    2
    22    15    21   am
    23    15    14    1
    24    24    23    2
    25    20    18    1
    26    17    18    1
    27    17    14    1
    28    17    19    1
    29    23    29   am
    30    29    30    1
    31   120   118    1
    32    37    38    1
    33    37    31   am
    34    35    34    2
    35    30    31    1
    36    30    33    1
    37   117   116    2
    38    38    39    1
    39   124   123    2
    40    34    36   am
    41    34    33    1
    42    31    32    2
    43   138   135    1
    44   138   139    1
    45   137   136    2
    46   118   119    1
    47   118   115    1
    48   134   135    1
    49   116   121   am
    50   116   115    1
    51   122   123    1
    52   122   121    1
    53   122   125    1
    54   123   126   am
    55   136   135    1
    56   141   139   ar
    57   115   114    1
    58    39    40    2
    59    39    41   am
    60    46    48    1
    61    46    45    1
    62   129   128    2
    63   139   140   ar
    64   172   171    1
    65    41    42    1
    66   128   127    1
    67   126   127    1
    68   171   170    1
    69    45    42    1
    70    45    47    1
    71   127   130    1
    72   114   107   am
    73    42    43    1
    74   108   107    2
    75   107   106    1
    76   170   169    1
    77   179   178    1
    78    44    43    2
    79    43    49   am
    80   130   131    1
    81   169   168    1
    82   104   103    2
    83    49    50    1
    84   133   131    1
    85   106   109    1
    86   106   105    1
    87    55    53    1
    88   131   132    1
    89   178   177    1
    90   178   180    1
    91   151   150    2
    92   177   174    1
    93   103   105   am
    94   103   102    1
    95   109   110    1
    96   155   153    1
    97   168   165    1
    98    50    53    1
    99    50    51    1
   100   102   101    1
   101   176   175    2
   102   150   149    1
   103    53    54    1
   104   149   152    1
   105   149   148    1
   106   165   166    1
   107   165   164    1
   108   167   166    2
   109   175   174    1
   110   174   173    1
   111   112   113    1
   112   112   111    1
   113   152   153    1
   114   153   154    1
   115    51    52    2
   116    92    94   ar
   117    92    90   ar
   118   110   111    1
   119   101    97   am
   120    54    56    1
   121    94    93   ar
   122   164   158   am
   123   162   160    1
   124   161   163    1
   125   161   160    1
   126   147   146    1
   127   142   143    1
   128    76    75    1
   129   159   158    2
   130    86    85    1
   131    86    87    1
   132    86    89    1
   133   158   157    1
   134    74    73    2
   135    90    89    1
   136    90    91   ar
   137    85    80   am
   138    97    98    2
   139    97    96    1
   140   160   157    1
   141    88    87    2
   142    87    95   am
   143    93    91   ar
   144   146   143    1
   145   143   144    1
   146    95    96    1
   147   157   156    1
   148    73    72    1
   149    75    72    1
   150    75    77    1
   151    80    79    1
   152    80    81    2
   153    96    99    1
   154    79    82    1
   155    79    78    1
   156   100    99    1
   157    72    71    1
   158   144   145    2
   159    82    83    1
   160    63    65   ar
   161    63    62   ar
   162    65    66   ar
   163    57    58    1
   164    83    84    1
   165    78    84    1
   166    62    61    1
   167    62    64   ar
   168    66    68   ar
   169    66    64   ar
   170    61    58    1
   171    58    59    1
   172    68    70   ar
   173    64    67   ar
   174    59    60    2
   175    70    69   ar
   176    67    69   ar
