@<TRIPOS>MOLECULE
tmp/1d3cA01.pdb
 251 247 0 0 0
SMALL
GASTEIGER

@<TRIPOS>ATOM
      1  N         29.4190   91.6650   46.7460 N.3    47  ARG47      -0.1245
      2  CA        30.1180   90.7530   47.6370 C.3    47  ARG47       0.1563
      3  C         29.2470   89.5590   48.0440 C.2    47  ARG47       0.2260
      4  O         29.7130   88.6380   48.7160 O.2    47  ARG47      -0.2867
      5  CB        30.6600   91.4830   48.8560 C.3    47  ARG47       0.0307
      6  CG        31.7400   92.4880   48.5150 C.3    47  ARG47       0.0489
      7  CD        32.1610   93.2940   49.7300 C.3    47  ARG47       0.2205
      8  NE        33.2850   94.1770   49.4310 N.pl3  47  ARG47      -0.0865
      9  CZ        34.5600   93.8200   49.5440 C.cat  47  ARG47       0.5346
     10  NH1       34.8740   92.5940   49.9450 N.pl3  47  ARG47       0.1354
     11  NH2       35.5240   94.6860   49.2580 N.pl3  47  ARG47       0.1354
     12  N         33.4280   91.8850   57.2320 N.3    89  TYR89      -0.1241
     13  CA        34.7240   92.5310   57.2030 C.3    89  TYR89       0.1605
     14  C         34.5490   94.0320   57.3670 C.2    89  TYR89       0.2264
     15  O         34.4780   94.7760   56.3870 O.2    89  TYR89      -0.2867
     16  CB        35.4450   92.2160   55.8880 C.3    89  TYR89       0.0534
     17  CG        36.0570   90.8310   55.8470 C.ar   89  TYR89      -0.0201
     18  CD1       36.6300   90.2700   56.9810 C.ar   89  TYR89      -0.0009
     19  CD2       36.0550   90.0830   54.6780 C.ar   89  TYR89      -0.0009
     20  CE1       37.1940   89.0050   56.9510 C.ar   89  TYR89       0.0417
     21  CE2       36.6150   88.8140   54.6400 C.ar   89  TYR89       0.0417
     22  CZ        37.1850   88.2830   55.7780 C.ar   89  TYR89       0.1957
     23  OH        37.7480   87.0240   55.7410 O.3    89  TYR89      -0.2866
     24  N         30.2000   89.3610   53.4120 N.3    94  ASN94      -0.1240
     25  CA        30.8130   88.6560   52.3000 C.3    94  ASN94       0.1653
     26  C         30.3790   87.2130   52.2400 C.2    94  ASN94       0.2266
     27  O         29.9750   86.6270   53.2450 O.2    94  ASN94      -0.2867
     28  CB        32.3350   88.7250   52.3910 C.3    94  ASN94       0.1155
     29  CG        32.8720   90.1200   52.1370 C.2    94  ASN94       0.2627
     30  OD1       33.6890   90.3290   51.2390 O.2    94  ASN94      -0.2716
     31  ND2       32.4270   91.0790   52.9400 N.am   94  ASN94      -0.0877
     32  N         30.9680   83.5750   46.9460 N.3    97  TYR97      -0.1227
     33  CA        30.4810   83.5750   45.5660 C.3    97  TYR97       0.1736
     34  C         31.6180   83.3530   44.5650 C.2    97  TYR97       0.2595
     35  O         31.4040   82.8240   43.4730 O.2    97  TYR97      -0.2718
     36  CB        29.7680   84.8930   45.2480 C.3    97  TYR97       0.0548
     37  CG        30.7280   86.0360   45.0150 C.ar   97  TYR97      -0.0200
     38  CD1       31.2620   86.7400   46.0780 C.ar   97  TYR97      -0.0009
     39  CD2       31.1410   86.3680   43.7360 C.ar   97  TYR97      -0.0009
     40  CE1       32.1530   87.7660   45.8760 C.ar   97  TYR97       0.0417
     41  CE2       32.0300   87.3990   43.5210 C.ar   97  TYR97       0.0417
     42  CZ        32.5370   88.0920   44.5990 C.ar   97  TYR97       0.1957
     43  OH        33.4280   89.1150   44.4000 O.3    97  TYR97      -0.2866
     44  N         32.8190   83.7750   44.9430 N.am   98  HIS98      -0.1975
     45  CA        33.9940   83.6580   44.0750 C.3    98  HIS98       0.1656
     46  C         34.5760   82.2310   44.0580 C.2    98  HIS98       0.2291
     47  O         35.4210   81.9110   43.2240 O.2    98  HIS98      -0.2864
     48  CB        35.0620   84.6570   44.5170 C.3    98  HIS98       0.0771
     49  CG        35.3550   84.6010   45.9880 C.ar   98  HIS98       0.0820
     50  ND1       36.0690   83.5660   46.5650 N.ar   98  HIS98      -0.2267
     51  CD2       34.9840   85.4230   46.9980 C.ar   98  HIS98       0.1154
     52  CE1       36.1420   83.7680   47.8700 C.ar   98  HIS98       0.1986
     53  NE2       35.4920   84.8880   48.1590 N.ar   98  HIS98      -0.2212
     54  N         36.6000   80.7270   46.1990 N.3   100  TYR100     -0.1227
     55  CA        37.9770   80.5880   46.6840 C.3   100  TYR100      0.1736
     56  C         38.1390   80.1250   48.1430 C.2   100  TYR100      0.2595
     57  O         39.2580   79.8870   48.6050 O.2   100  TYR100     -0.2718
     58  CB        38.7600   81.8760   46.4490 C.3   100  TYR100      0.0548
     59  CG        39.2260   82.0520   45.0210 C.ar  100  TYR100     -0.0200
     60  CD1       40.1420   81.1750   44.4580 C.ar  100  TYR100     -0.0009
     61  CD2       38.7400   83.0830   44.2360 C.ar  100  TYR100     -0.0009
     62  CE1       40.5770   81.3300   43.1540 C.ar  100  TYR100      0.0417
     63  CE2       39.1630   83.2450   42.9290 C.ar  100  TYR100      0.0417
     64  CZ        40.0830   82.3670   42.3940 C.ar  100  TYR100      0.1957
     65  OH        40.5080   82.5290   41.0960 O.3   100  TYR100     -0.2866
     66  N         37.0250   79.9900   48.8530 N.am  101  TRP101     -0.1976
     67  CA        37.0450   79.5570   50.2510 C.3   101  TRP101      0.1640
     68  C         36.5280   78.1330   50.3620 C.2   101  TRP101      0.2290
     69  O         35.3940   77.9060   50.7790 O.2   101  TRP101     -0.2864
     70  CB        36.1770   80.4780   51.0950 C.3   101  TRP101      0.0576
     71  CG        36.6130   81.8880   51.0580 C.ar  101  TRP101      0.0006
     72  CD1       37.8260   82.3590   50.6520 C.ar  101  TRP101      0.0946
     73  CD2       35.8500   83.0300   51.4550 C.ar  101  TRP101      0.0152
     74  NE1       37.8630   83.7270   50.7660 N.ar  101  TRP101     -0.2442
     75  CE2       36.6650   84.1630   51.2590 C.ar  101  TRP101      0.0810
     76  CE3       34.5530   83.2080   51.9470 C.ar  101  TRP101      0.0012
     77  CZ2       36.2270   85.4530   51.5370 C.ar  101  TRP101      0.0191
     78  CZ3       34.1230   84.4940   52.2310 C.ar  101  TRP101      0.0001
     79  CH2       34.9590   85.5980   52.0240 C.ar  101  TRP101      0.0015
     80  N         44.8110   76.6560   50.4270 N.3   140  HIS140     -0.1241
     81  CA        44.1630   76.8860   51.6940 C.3   140  HIS140      0.1621
     82  C         42.7260   76.4400   51.6490 C.2   140  HIS140      0.2264
     83  O         42.2210   76.0410   50.6030 O.2   140  HIS140     -0.2867
     84  CB        44.1690   78.3840   51.9470 C.3   140  HIS140      0.0745
     85  CG        43.5320   79.1680   50.8390 C.ar  140  HIS140      0.0817
     86  ND1       44.2630   79.7310   49.8160 N.ar  140  HIS140     -0.2268
     87  CD2       42.2370   79.3750   50.5300 C.ar  140  HIS140      0.1154
     88  CE1       43.4460   80.3060   48.9580 C.ar  140  HIS140      0.1986
     89  NE2       42.2110   80.1060   49.3670 N.ar  140  HIS140     -0.2212
     90  N         38.8030   81.4600   55.4030 N.3   143  PRO143     -0.2116
     91  CA        39.2310   82.3880   56.4510 C.3   143  PRO143      0.1372
     92  C         38.9740   81.8010   57.8320 C.2   143  PRO143      0.2244
     93  O         37.9100   81.2360   58.0830 O.2   143  PRO143     -0.2868
     94  CB        38.3180   83.5960   56.2340 C.3   143  PRO143      0.0268
     95  CG        37.9300   83.5260   54.8030 C.3   143  PRO143      0.0207
     96  CD        37.8170   82.0700   54.4910 C.3   143  PRO143      0.0892
     97  N         53.6990   88.7530   54.4830 N.3   182  ASP182     -0.1225
     98  CA        53.7410   90.1480   54.1010 C.3   182  ASP182      0.1805
     99  C         54.2810   90.2230   52.6770 C.2   182  ASP182      0.2597
    100  O         54.6520   91.2880   52.1890 O.2   182  ASP182     -0.2718
    101  CB        54.6230   90.9490   55.0650 C.3   182  ASP182      0.1424
    102  CG        56.0900   90.5570   54.9850 C.2   182  ASP182      0.3668
    103  OD1       56.3970   89.5310   54.3670 O.co2 182  ASP182     -0.2456
    104  OD2       56.9220   91.2730   55.6000 O.co2 182  ASP182     -0.2456
    105  N         54.3220   89.0590   52.0230 N.am  183  PHE183     -0.1976
    106  CA        54.8050   88.9430   50.6550 C.3   183  PHE183      0.1639
    107  C         56.2560   89.4290   50.5210 C.2   183  PHE183      0.2290
    108  O         56.7410   89.6620   49.4160 O.2   183  PHE183     -0.2864
    109  CB        53.8880   89.7130   49.6890 C.3   183  PHE183      0.0560
    110  CG        52.4180   89.3830   49.8400 C.ar  183  PHE183     -0.0200
    111  CD1       51.6600   89.9750   50.8330 C.ar  183  PHE183     -0.0042
    112  CD2       51.7940   88.5040   48.9690 C.ar  183  PHE183     -0.0042
    113  CE1       50.3140   89.6850   50.9660 C.ar  183  PHE183     -0.0003
    114  CE2       50.4460   88.2100   49.1000 C.ar  183  PHE183     -0.0003
    115  CZ        49.7100   88.8020   50.0960 C.ar  183  PHE183     -0.0000
    116  N         47.8300   83.2130   53.7450 N.3   194  LEU194     -0.1231
    117  CA        47.4820   84.1930   52.7380 C.3   194  LEU194      0.1693
    118  C         46.3230   84.9730   53.3360 C.2   194  LEU194      0.2592
    119  O         45.1830   84.5100   53.3240 O.2   194  LEU194     -0.2718
    120  CB        47.0310   83.4950   51.4600 C.3   194  LEU194      0.0284
    121  CG        47.7950   83.8690   50.1950 C.3   194  LEU194      0.0019
    122  CD1       46.9370   83.6180   48.9520 C.3   194  LEU194      0.0001
    123  CD2       48.2530   85.3210   50.2560 C.3   194  LEU194      0.0001
    124  N         46.6370   86.1170   53.9370 N.am  195  TYR195     -0.1962
    125  CA        45.6440   86.9120   54.6310 C.3   195  TYR195      0.1771
    126  C         45.1870   86.1140   55.8480 C.2   195  TYR195      0.2620
    127  O         46.0100   85.6690   56.6440 O.2   195  TYR195     -0.2715
    128  CB        44.4620   87.2460   53.7200 C.3   195  TYR195      0.0574
    129  CG        44.8770   87.8200   52.3810 C.ar  195  TYR195     -0.0198
    130  CD1       45.6800   88.9490   52.3070 C.ar  195  TYR195     -0.0009
    131  CD2       44.5140   87.1970   51.1970 C.ar  195  TYR195     -0.0009
    132  CE1       46.0840   89.4620   51.0810 C.ar  195  TYR195      0.0417
    133  CE2       44.9100   87.6990   49.9690 C.ar  195  TYR195      0.0417
    134  CZ        45.6950   88.8290   49.9150 C.ar  195  TYR195      0.1957
    135  OH        46.0890   89.3280   48.6910 O.3   195  TYR195     -0.2866
    136  N         43.8870   85.8970   55.9760 N.am  196  ASP196     -0.1957
    137  CA        43.3770   85.1270   57.1000 C.3   196  ASP196      0.1840
    138  C         42.9860   83.7250   56.6550 C.2   196  ASP196      0.2621
    139  O         42.3140   82.9910   57.3880 O.2   196  ASP196     -0.2715
    140  CB        42.1740   85.8280   57.7460 C.3   196  ASP196      0.1450
    141  CG        40.9750   85.8970   56.8210 C.2   196  ASP196      0.3671
    142  OD1       41.1240   85.5530   55.6380 O.co2 196  ASP196     -0.2456
    143  OD2       39.8900   86.3440   57.2740 O.co2 196  ASP196     -0.2456
    144  N         43.4170   83.3530   55.4570 N.am  197  LEU197     -0.1977
    145  CA        43.0960   82.0530   54.9060 C.3   197  LEU197      0.1596
    146  C         43.9360   80.9200   55.5020 C.2   197  LEU197      0.2287
    147  O         45.1640   80.9860   55.5240 O.2   197  LEU197     -0.2864
    148  CB        43.2040   82.0760   53.3870 C.3   197  LEU197      0.0297
    149  CG        42.3020   83.1090   52.7010 C.3   197  LEU197      0.0022
    150  CD1       42.7920   83.3900   51.2900 C.3   197  LEU197      0.0001
    151  CD2       40.8560   82.6340   52.6850 C.3   197  LEU197      0.0001
    152  N         43.3380   75.5370   36.3430 N.3   227  ARG227     -0.1245
    153  CA        43.9900   76.8020   36.6400 C.3   227  ARG227      0.1563
    154  C         44.3100   76.7860   38.1330 C.2   227  ARG227      0.2260
    155  O         43.4190   76.9120   38.9670 O.2   227  ARG227     -0.2867
    156  CB        43.1010   77.9940   36.2960 C.3   227  ARG227      0.0307
    157  CG        43.7430   79.3520   36.6240 C.3   227  ARG227      0.0489
    158  CD        43.4170   79.8050   38.0510 C.3   227  ARG227      0.2205
    159  NE        43.7590   81.2110   38.2810 N.pl3 227  ARG227     -0.0865
    160  CZ        43.5210   81.8590   39.4170 C.cat 227  ARG227      0.5346
    161  NH1       42.9410   81.2300   40.4320 N.pl3 227  ARG227      0.1354
    162  NH2       43.8590   83.1370   39.5400 N.pl3 227  ARG227      0.1354
    163  N         45.3390   78.0490   41.5460 N.3   229  ASN229     -0.1225
    164  CA        45.3370   79.2930   42.2920 C.3   229  ASN229      0.1785
    165  C         46.5860   79.4620   43.1640 C.2   229  ASN229      0.2597
    166  O         47.0780   78.5060   43.7510 O.2   229  ASN229     -0.2718
    167  CB        44.0850   79.3740   43.1660 C.3   229  ASN229      0.1169
    168  CG        43.9810   80.6810   43.9110 C.2   229  ASN229      0.2627
    169  OD1       44.0720   81.7540   43.3180 O.2   229  ASN229     -0.2716
    170  ND2       43.7990   80.6000   45.2220 N.am  229  ASN229     -0.0877
    171  N         47.0710   80.7020   43.2370 N.am  230  ALA230     -0.1979
    172  CA        48.2180   81.0820   44.0700 C.3   230  ALA230      0.1597
    173  C         49.3570   80.0750   44.1320 C.2   230  ALA230      0.2287
    174  O         49.7480   79.6490   45.2160 O.2   230  ALA230     -0.2864
    175  CB        47.7360   81.4040   45.4790 C.3   230  ALA230      0.0319
    176  N         52.4610   80.6080   43.7090 N.3   232  LYS232     -0.1231
    177  CA        53.6350   81.1830   44.3430 C.3   232  LYS232      0.1693
    178  C         53.5010   81.0910   45.8680 C.2   232  LYS232      0.2592
    179  O         54.4070   81.4710   46.6020 O.2   232  LYS232     -0.2718
    180  CB        53.8430   82.6430   43.9050 C.3   232  LYS232      0.0285
    181  CG        52.8530   83.6320   44.5090 C.3   232  LYS232      0.0035
    182  CD        52.8780   84.9650   43.7590 C.3   232  LYS232      0.0206
    183  CE        53.0950   86.1400   44.7010 C.3   232  LYS232      0.1093
    184  NZ        53.6210   87.3500   43.9930 N.3   232  LYS232     -0.1314
    185  N         52.3720   80.5620   46.3300 N.am  233  HIS233     -0.1976
    186  CA        52.1090   80.4380   47.7690 C.3   233  HIS233      0.1656
    187  C         52.1160   79.0100   48.2730 C.2   233  HIS233      0.2291
    188  O         51.7830   78.7450   49.4260 O.2   233  HIS233     -0.2864
    189  CB        50.8230   81.1370   48.1290 C.3   233  HIS233      0.0771
    190  CG        50.8890   82.6170   47.9440 C.ar  233  HIS233      0.0820
    191  ND1       51.8660   83.3880   48.5400 N.ar  233  HIS233     -0.2267
    192  CD2       50.2070   83.4430   47.1140 C.ar  233  HIS233      0.1154
    193  CE1       51.7410   84.6400   48.1390 C.ar  233  HIS233      0.1986
    194  NE2       50.7440   84.7020   47.2690 N.ar  233  HIS233     -0.2212
    195  N         48.7090   80.5460   38.7870 N.3   257  GLN257     -0.1245
    196  CA        48.6310   81.9850   38.9900 C.3   257  GLN257      0.1566
    197  C         49.7800   82.4680   39.8550 C.2   257  GLN257      0.2260
    198  O         49.7920   82.2660   41.0680 O.2   257  GLN257     -0.2867
    199  CB        47.3030   82.3870   39.6130 C.3   257  GLN257      0.0367
    200  CG        47.1270   83.8970   39.7360 C.3   257  GLN257      0.0905
    201  CD        46.7130   84.3250   41.1320 C.2   257  GLN257      0.2608
    202  OE1       46.9170   83.5930   42.0990 O.2   257  GLN257     -0.2717
    203  NE2       46.0880   85.4950   41.2360 N.am  257  GLN257     -0.0878
    204  N         51.3160   85.9640   40.2740 N.3   259  PHE259     -0.1241
    205  CA        51.2570   87.3900   40.0230 C.3   259  PHE259      0.1605
    206  C         52.6190   88.0350   39.8350 C.2   259  PHE259      0.2264
    207  O         53.5790   87.7300   40.5390 O.2   259  PHE259     -0.2867
    208  CB        50.4800   88.1100   41.1290 C.3   259  PHE259      0.0534
    209  CG        50.4630   89.6120   40.9810 C.ar  259  PHE259     -0.0203
    210  CD1       51.5420   90.3770   41.4010 C.ar  259  PHE259     -0.0042
    211  CD2       49.3810   90.2560   40.3950 C.ar  259  PHE259     -0.0042
    212  CE1       51.5360   91.7540   41.2560 C.ar  259  PHE259     -0.0003
    213  CE2       49.3720   91.6410   40.2470 C.ar  259  PHE259     -0.0003
    214  CZ        50.4520   92.3850   40.6790 C.ar  259  PHE259     -0.0000
    215  N         39.9680   89.1490   37.5050 N.3   327  HIS327     -0.1226
    216  CA        39.2060   89.4600   38.7170 C.3   327  HIS327      0.1752
    217  C         40.0090   90.0980   39.8530 C.2   327  HIS327      0.2596
    218  O         39.4500   90.4020   40.9020 O.2   327  HIS327     -0.2718
    219  CB        38.4920   88.1910   39.2360 C.3   327  HIS327      0.0759
    220  CG        39.4360   87.0670   39.5420 C.ar  327  HIS327      0.0818
    221  ND1       40.2630   86.5160   38.5890 N.ar  327  HIS327     -0.2268
    222  CD2       39.7210   86.4310   40.6990 C.ar  327  HIS327      0.1154
    223  CE1       40.9990   85.5690   39.1450 C.ar  327  HIS327      0.1986
    224  NE2       40.6900   85.4990   40.4250 N.ar  327  HIS327     -0.2212
    225  N         41.3090   90.2620   39.6640 N.am  328  ASP328     -0.1974
    226  CA        42.1550   90.8520   40.6900 C.3   328  ASP328      0.1709
    227  C         42.7820   92.1630   40.2750 C.2   328  ASP328      0.2293
    228  O         43.7510   92.6150   40.8820 O.2   328  ASP328     -0.2864
    229  CB        43.2390   89.8790   41.1310 C.3   328  ASP328      0.1436
    230  CG        42.6850   88.5970   41.6610 C.2   328  ASP328      0.3671
    231  OD1       41.6600   88.6220   42.3910 O.co2 328  ASP328     -0.2456
    232  OD2       43.2800   87.5380   41.3810 O.co2 328  ASP328     -0.2456
    233  N         38.6200   94.4650   43.4080 N.3   371  ASP371     -0.1239
    234  CA        37.6270   93.6560   44.1190 C.3   371  ASP371      0.1674
    235  C         36.7520   94.5220   45.0270 C.2   371  ASP371      0.2266
    236  O         37.2660   95.2890   45.8460 O.2   371  ASP371     -0.2867
    237  CB        38.3520   92.5890   44.9610 C.3   371  ASP371      0.1410
    238  CG        37.4010   91.6500   45.6830 C.2   371  ASP371      0.3668
    239  OD1       36.2210   91.6640   45.3780 O.co2 371  ASP371     -0.2456
    240  OD2       37.8760   90.8590   46.5270 O.co2 371  ASP371     -0.2456
    241  N         33.9520   92.5990   39.3240 N.3   375  ARG375     -0.1245
    242  CA        33.1740   91.3710   39.2050 C.3   375  ARG375      0.1563
    243  C         31.6690   91.6100   39.0880 C.2   375  ARG375      0.2260
    244  O         30.8730   90.8220   39.5970 O.2   375  ARG375     -0.2867
    245  CB        33.4600   90.4330   40.3800 C.3   375  ARG375      0.0307
    246  CG        34.9270   90.0940   40.5580 C.3   375  ARG375      0.0489
    247  CD        35.2910   89.9390   42.0320 C.3   375  ARG375      0.2205
    248  NE        36.7210   89.6970   42.2300 N.pl3 375  ARG375     -0.0865
    249  CZ        37.2250   88.9580   43.2140 C.cat 375  ARG375      0.5346
    250  NH1       36.4210   88.3800   44.0920 N.pl3 375  ARG375      0.1354
    251  NH2       38.5370   88.7990   43.3200 N.pl3 375  ARG375      0.1354
@<TRIPOS>BOND
     1   156   157    1
     2   156   153    1
     3   152   153    1
     4   157   158    1
     5   153   154    1
     6   215   216    1
     7   158   159    1
     8   154   155    2
     9   159   160    2
    10   221   223   ar
    11   221   220   ar
    12   216   219    1
    13   216   217    1
    14   195   196    1
    15   196   199    1
    16   196   197    1
    17   243   242    1
    18   243   244    2
    19   223   224   ar
    20   242   241    1
    21   242   245    1
    22   219   220    1
    23   160   162    1
    24   160   161    1
    25   220   222   ar
    26   199   200    1
    27   225   217   am
    28   225   226    1
    29   200   201    1
    30   206   205    1
    31   206   207    2
    32   217   218    2
    33   197   198    2
    34   205   204    1
    35   205   208    1
    36   213   211   ar
    37   213   214   ar
    38   227   226    1
    39   227   228    2
    40   245   246    1
    41   211   209   ar
    42   224   222   ar
    43   246   247    1
    44   214   212   ar
    45   226   229    1
    46   209   208    1
    47   209   210   ar
    48    65    64    1
    49   229   230    1
    50   201   203   am
    51   201   202    2
    52   212   210   ar
    53   232   230   ar
    54   163   164    1
    55   230   231   ar
    56   247   248    1
    57   248   249    2
    58   164   165    1
    59   164   167    1
    60    64    63   ar
    61    64    62   ar
    62    63    61   ar
    63    62    60   ar
    64   165   171   am
    65   165   166    2
    66   167   168    1
    67   249   251    1
    68   249   250    1
    69    47    46    2
    70   171   172    1
    71   169   168    2
    72   233   234    1
    73    35    34    2
    74    41    39   ar
    75    41    42   ar
    76   176   177    1
    77    39    37   ar
    78   182   181    1
    79   182   183    1
    80   180   177    1
    81   180   181    1
    82   168   170   am
    83   184   183    1
    84    46    45    1
    85   172   173    1
    86   172   175    1
    87    45    48    1
    88    45    44    1
    89   234   237    1
    90   234   235    1
    91   173   174    2
    92    61    59   ar
    93   177   178    1
    94    43    42    1
    95    60    59   ar
    96    48    49    1
    97    34    44   am
    98    34    33    1
    99    42    40   ar
   100   237   238    1
   101    37    36    1
   102    37    38   ar
   103    59    58    1
   104   235   236    2
   105    36    33    1
   106   239   238   ar
   107    33    32    1
   108   238   240   ar
   109   178   185   am
   110   178   179    2
   111    40    38   ar
   112    49    50   ar
   113    49    51   ar
   114    54    55    1
   115   185   186    1
   116    58    55    1
   117    50    52   ar
   118    55    56    1
   119     1     2    1
   120    51    53   ar
   121   192   194   ar
   122   192   190   ar
   123   194   193   ar
   124     2     3    1
   125     2     5    1
   126   186   189    1
   127   186   187    1
   128    52    53   ar
   129   190   189    1
   130   190   191   ar
   131     3     4    2
   132   193   191   ar
   133    56    57    2
   134    56    66   am
   135   187   188    2
   136     6     5    1
   137     6     7    1
   138   135   134    1
   139    66    67    1
   140   122   121    1
   141    88    89   ar
   142    88    86   ar
   143   112   114   ar
   144   112   110   ar
   145   114   115   ar
   146    11     9    1
   147    89    87   ar
   148   108   107    2
   149     8     9    2
   150     8     7    1
   151     9    10    1
   152   109   110    1
   153   109   106    1
   154    86    85   ar
   155   110   111   ar
   156   134   133   ar
   157   134   132   ar
   158   133   131   ar
   159   115   113   ar
   160   121   123    1
   161   121   120    1
   162    67    68    1
   163    67    70    1
   164    68    69    2
   165    80    81    1
   166   107   106    1
   167    87    85   ar
   168    83    82    2
   169    72    74   ar
   170    72    71   ar
   171   106   105    1
   172    74    75   ar
   173   111   113   ar
   174    85    84    1
   175    71    70    1
   176    71    73   ar
   177   132   130   ar
   178   131   129   ar
   179    30    29    2
   180    75    73   ar
   181    75    77   ar
   182   150   149    1
   183    73    76   ar
   184   120   117    1
   185    77    79   ar
   186    82    81    1
   187    81    84    1
   188    76    78   ar
   189   105    99   am
   190    79    78   ar
   191    29    28    1
   192    29    31   am
   193   100    99    2
   194    26    25    1
   195    26    27    2
   196    25    28    1
   197    25    24    1
   198   130   129   ar
   199   129   128    1
   200    99    98    1
   201   151   149    1
   202   149   148    1
   203   117   118    1
   204   117   116    1
   205   119   118    2
   206   118   124   am
   207   148   145    1
   208   128   125    1
   209   124   125    1
   210    98    97    1
   211    98   101    1
   212   103   102   ar
   213    96    95    1
   214    96    90    1
   215   125   126    1
   216    21    19   ar
   217    21    22   ar
   218    19    17   ar
   219    95    94    1
   220   145   144    1
   221   145   146    1
   222   102   101    1
   223   102   104   ar
   224    90    91    1
   225   144   138   am
   226   146   147    2
   227   142   141   ar
   228    23    22    1
   229    22    20   ar
   230    17    16    1
   231    17    18   ar
   232   126   136   am
   233   126   127    2
   234    16    13    1
   235   136   137    1
   236    94    91    1
   237    15    14    2
   238    91    92    1
   239   138   137    1
   240   138   139    2
   241   141   143   ar
   242   141   140    1
   243    20    18   ar
   244   137   140    1
   245    13    12    1
   246    13    14    1
   247    92    93    2
