@<TRIPOS>MOLECULE
tmp/1d3cA03.pdb
 113 111 0 0 0
SMALL
GASTEIGER

@<TRIPOS>ATOM
      1  N         56.9430   89.5600   51.6530 N.3   184  SER184     -0.1202
      2  CA        58.3270   90.0380   51.6690 C.3   184  SER184      0.2020
      3  C         59.3230   89.0970   50.9690 C.2   184  SER184      0.2619
      4  O         60.2750   89.5500   50.3400 O.2   184  SER184     -0.2717
      5  CB        58.7790   90.3670   53.0910 C.3   184  SER184      0.2103
      6  OG        58.9840   89.1870   53.8270 O.3   184  SER184     -0.2182
      7  N         59.1020   87.7950   51.0850 N.am  185  THR185     -0.1938
      8  CA        59.9690   86.8230   50.4250 C.3   185  THR185      0.2028
      9  C         59.1330   85.6910   49.8580 C.2   185  THR185      0.2643
     10  O         57.9690   85.5360   50.2100 O.2   185  THR185     -0.2714
     11  CB        61.0630   86.2620   51.3670 C.3   185  THR185      0.1808
     12  OG1       60.4620   85.4200   52.3540 O.3   185  THR185     -0.2208
     13  CG2       61.8150   87.3900   52.0550 C.3   185  THR185      0.0379
     14  N         59.7130   84.9220   48.9520 N.am  186  THR186     -0.1936
     15  CA        58.9880   83.8170   48.3600 C.3   186  THR186      0.2028
     16  C         58.6440   82.7920   49.4410 C.2   186  THR186      0.2642
     17  O         57.5020   82.3590   49.5580 O.2   186  THR186     -0.2714
     18  CB        59.7850   83.1510   47.2230 C.3   186  THR186      0.1808
     19  OG1       59.8260   84.0290   46.0970 O.3   186  THR186     -0.2208
     20  CG2       59.1320   81.8480   46.8070 C.3   186  THR186      0.0379
     21  N         59.6320   82.4620   50.2670 N.am  187  GLU187     -0.1976
     22  CA        59.4390   81.5140   51.3610 C.3   187  GLU187      0.1602
     23  C         58.4090   82.0430   52.3590 C.2   187  GLU187      0.2287
     24  O         57.6250   81.2800   52.9290 O.2   187  GLU187     -0.2864
     25  CB        60.7670   81.2350   52.0580 C.3   187  GLU187      0.0415
     26  CG        60.6580   80.9730   53.5450 C.3   187  GLU187      0.1163
     27  CD        62.0150   80.7890   54.1990 C.2   187  GLU187      0.3649
     28  OE1       63.0130   81.3380   53.6850 O.co2 187  GLU187     -0.2457
     29  OE2       62.0790   80.0810   55.2360 O.co2 187  GLU187     -0.2457
     30  N         76.7270   79.6530   55.9610 N.3   598  THR598     -0.1203
     31  CA        77.0410   80.2860   54.7000 C.3   598  THR598      0.1994
     32  C         77.3260   81.7550   54.8820 C.2   598  THR598      0.2618
     33  O         77.0830   82.3260   55.9440 O.2   598  THR598     -0.2717
     34  CB        75.8630   80.1740   53.7260 C.3   598  THR598      0.1784
     35  OG1       74.6600   80.5690   54.3920 O.3   598  THR598     -0.2211
     36  CG2       75.7200   78.7530   53.2090 C.3   598  THR598      0.0376
     37  N         77.8010   82.3720   53.8110 N.am  599  ALA599     -0.1965
     38  CA        78.0620   83.7870   53.8020 C.3   599  ALA599      0.1728
     39  C         76.9680   84.4330   52.9750 C.2   599  ALA599      0.2616
     40  O         76.3310   83.7710   52.1540 O.2   599  ALA599     -0.2715
     41  CB        79.4260   84.0690   53.1960 C.3   599  ALA599      0.0334
     42  N         76.7330   85.7160   53.2120 N.am  600  LEU600     -0.1963
     43  CA        75.7150   86.4530   52.4880 C.3   600  LEU600      0.1728
     44  C         75.8800   86.2690   50.9860 C.2   600  LEU600      0.2617
     45  O         76.9390   86.5540   50.4300 O.2   600  LEU600     -0.2715
     46  CB        75.7820   87.9390   52.8410 C.3   600  LEU600      0.0311
     47  CG        75.1850   88.3280   54.1960 C.3   600  LEU600      0.0022
     48  CD1       75.3930   89.8090   54.4610 C.3   600  LEU600      0.0001
     49  CD2       73.7010   87.9730   54.2540 C.3   600  LEU600      0.0001
     50  N         74.8340   85.7610   50.3380 N.am  601  GLY601     -0.1940
     51  CA        74.8630   85.5120   48.9020 C.3   601  GLY601      0.2014
     52  C         75.0670   84.0250   48.6140 C.2   601  GLY601      0.2639
     53  O         74.7150   83.5330   47.5390 O.2   601  GLY601     -0.2714
     54  N         75.6350   83.3160   49.5870 N.am  602  GLN602     -0.1963
     55  CA        75.8850   81.8790   49.4610 C.3   602  GLN602      0.1733
     56  C         74.6720   81.0840   49.9560 C.2   602  GLN602      0.2616
     57  O         74.1450   81.3560   51.0300 O.2   602  GLN602     -0.2715
     58  CB        77.1240   81.4890   50.2660 C.3   602  GLN602      0.0408
     59  CG        77.7620   80.1800   49.8330 C.3   602  GLN602      0.0908
     60  CD        78.9890   79.8260   50.6590 C.2   602  GLN602      0.2608
     61  OE1       79.1050   80.2160   51.8240 O.2   602  GLN602     -0.2717
     62  NE2       79.9070   79.0830   50.0570 N.am  602  GLN602     -0.0878
     63  N         74.2330   80.1040   49.1680 N.am  603  ASN603     -0.1972
     64  CA        73.0720   79.3110   49.5370 C.3   603  ASN603      0.1688
     65  C         73.3190   77.8180   49.5250 C.2   603  ASN603      0.2292
     66  O         74.2240   77.3290   48.8580 O.2   603  ASN603     -0.2864
     67  CB        71.8800   79.6470   48.6430 C.3   603  ASN603      0.1181
     68  CG        71.3170   81.0310   48.9170 C.2   603  ASN603      0.2629
     69  OD1       70.4750   81.2080   49.7990 O.2   603  ASN603     -0.2716
     70  ND2       71.7520   82.0100   48.1330 N.am  603  ASN603     -0.0877
     71  N         65.4550   78.9630   54.8810 N.3   627  ASN627     -0.1225
     72  CA        66.0270   78.9630   56.2170 C.3   627  ASN627      0.1785
     73  C         65.4320   80.0360   57.1410 C.2   627  ASN627      0.2597
     74  O         66.1080   80.5110   58.0450 O.2   627  ASN627     -0.2718
     75  CB        67.5510   79.1320   56.1360 C.3   627  ASN627      0.1169
     76  CG        67.9600   80.4400   55.4710 C.2   627  ASN627      0.2627
     77  OD1       67.2060   81.4050   55.4710 O.2   627  ASN627     -0.2716
     78  ND2       69.1540   80.4660   54.8910 N.am  627  ASN627     -0.0877
     79  N         64.1740   80.4110   56.9170 N.am  628  GLN628     -0.1979
     80  CA        63.5420   81.4360   57.7480 C.3   628  GLN628      0.1601
     81  C         62.2970   80.9670   58.5170 C.2   628  GLN628      0.2287
     82  O         62.2160   81.1180   59.7390 O.2   628  GLN628     -0.2864
     83  CB        63.1760   82.6870   56.9180 C.3   628  GLN628      0.0394
     84  CG        64.1570   83.0570   55.7910 C.3   628  GLN628      0.0908
     85  CD        63.5260   83.9850   54.7410 C.2   628  GLN628      0.2608
     86  OE1       62.2990   84.0810   54.6380 O.2   628  GLN628     -0.2717
     87  NE2       64.3630   84.6430   53.9490 N.am  628  GLN628     -0.0878
     88  N         68.0530   79.4300   59.8960 N.3   633  TYR633     -0.1241
     89  CA        69.4850   79.2920   59.6260 C.3   633  TYR633      0.1605
     90  C         70.1890   79.2420   60.9900 C.2   633  TYR633      0.2264
     91  O         69.7000   79.8460   61.9440 O.2   633  TYR633     -0.2867
     92  CB        69.9650   80.5120   58.8280 C.3   633  TYR633      0.0534
     93  CG        71.4580   80.6120   58.7040 C.ar  633  TYR633     -0.0201
     94  CD1       72.2270   81.1010   59.7470 C.ar  633  TYR633     -0.0009
     95  CD2       72.1050   80.2050   57.5470 C.ar  633  TYR633     -0.0009
     96  CE1       73.6050   81.1880   59.6420 C.ar  633  TYR633      0.0417
     97  CE2       73.4840   80.2780   57.4350 C.ar  633  TYR633      0.0417
     98  CZ        74.2270   80.7750   58.4870 C.ar  633  TYR633      0.1957
     99  OH        75.5900   80.8550   58.3860 O.3   633  TYR633     -0.2866
    100  N         68.5640   74.6360   57.1640 N.3   636  TRP636     -0.1241
    101  CA        67.9140   74.8590   55.8730 C.3   636  TRP636      0.1605
    102  C         66.8920   73.7610   55.5730 C.2   636  TRP636      0.2264
    103  O         67.0510   72.6180   56.0000 O.2   636  TRP636     -0.2867
    104  CB        68.9590   74.9230   54.7520 C.3   636  TRP636      0.0550
    105  CG        70.0200   75.9790   54.9590 C.ar  636  TRP636      0.0003
    106  CD1       70.9400   76.0290   55.9640 C.ar  636  TRP636      0.0946
    107  CD2       70.2690   77.1270   54.1300 C.ar  636  TRP636      0.0152
    108  NE1       71.7470   77.1340   55.8160 N.ar  636  TRP636     -0.2442
    109  CE2       71.3530   77.8260   54.7010 C.ar  636  TRP636      0.0810
    110  CE3       69.6810   77.6300   52.9650 C.ar  636  TRP636      0.0012
    111  CZ2       71.8600   78.9960   54.1470 C.ar  636  TRP636      0.0191
    112  CZ3       70.1880   78.7990   52.4190 C.ar  636  TRP636      0.0001
    113  CH2       71.2640   79.4680   53.0120 C.ar  636  TRP636      0.0015
@<TRIPOS>BOND
     1    19    18    1
     2    20    18    1
     3    18    15    1
     4    53    52    2
     5    70    68   am
     6    15    14    1
     7    15    16    1
     8    52    51    1
     9    52    54   am
    10    67    68    1
    11    67    64    1
    12    66    65    2
    13    51    50    1
    14    68    69    2
    15    14     9   am
    16    63    64    1
    17    63    56   am
    18    16    17    2
    19    16    21   am
    20    55    54    1
    21    55    56    1
    22    55    58    1
    23    65    64    1
    24    59    58    1
    25    59    60    1
    26     9    10    2
    27     9     8    1
    28    56    57    2
    29    62    60   am
    30    21    22    1
    31    50    44   am
    32     4     3    2
    33     8     7    1
    34     8    11    1
    35    45    44    2
    36    60    61    2
    37     3     7   am
    38     3     2    1
    39    44    43    1
    40    22    25    1
    41    22    23    1
    42    11    13    1
    43    11    12    1
    44     1     2    1
    45     2     5    1
    46    25    26    1
    47    40    39    2
    48    23    24    2
    49   112   110   ar
    50   112   113   ar
    51    43    46    1
    52    43    42    1
    53    46    47    1
    54   110   107   ar
    55    39    42   am
    56    39    38    1
    57   113   111   ar
    58     5     6    1
    59    41    38    1
    60    36    34    1
    61    26    27    1
    62    28    27   ar
    63    34    35    1
    64    34    31    1
    65    38    37    1
    66    37    32   am
    67    87    85   am
    68   107   109   ar
    69   107   105   ar
    70   111   109   ar
    71    47    49    1
    72    47    48    1
    73    27    29   ar
    74    86    85    2
    75    31    32    1
    76    31    30    1
    77   109   108   ar
    78    85    84    1
    79   104   105    1
    80   104   101    1
    81    71    72    1
    82    32    33    2
    83    78    76   am
    84   105   106   ar
    85    77    76    2
    86    76    75    1
    87   102   101    1
    88   102   103    2
    89    84    83    1
    90   108   106   ar
    91   101   100    1
    92    75    72    1
    93    72    73    1
    94    79    73   am
    95    79    80    1
    96    83    80    1
    97    73    74    2
    98    97    95   ar
    99    97    98   ar
   100    95    93   ar
   101    80    81    1
   102    99    98    1
   103    98    96   ar
   104    81    82    2
   105    93    92    1
   106    93    94   ar
   107    92    89    1
   108    89    88    1
   109    89    90    1
   110    96    94   ar
   111    90    91    2
