@<TRIPOS>MOLECULE
tmp/1d3dB01.pdb
 193 192 0 0 0
SMALL
GASTEIGER

@<TRIPOS>ATOM
      1  N        -13.0010  -26.9080   18.8350 N.3    43  HIS43      -0.1241
      2  CA       -13.2470  -28.2720   18.3920 C.3    43  HIS43       0.1621
      3  C        -13.9610  -28.3620   17.0420 C.2    43  HIS43       0.2264
      4  O        -13.9470  -29.4090   16.3990 O.2    43  HIS43      -0.2867
      5  CB       -14.0220  -29.0500   19.4560 C.3    43  HIS43       0.0745
      6  CG       -15.5020  -28.8230   19.4330 C.ar   43  HIS43       0.0817
      7  ND1      -16.1410  -28.0050   20.3420 N.ar   43  HIS43      -0.2268
      8  CD2      -16.4790  -29.3690   18.6680 C.ar   43  HIS43       0.1154
      9  CE1      -17.4460  -28.0590   20.1410 C.ar   43  HIS43       0.1986
     10  NE2      -17.6780  -28.8800   19.1310 N.ar   43  HIS43      -0.2212
     11  N         -9.7010  -31.0610   15.9210 N.3    47  TYR47      -0.1241
     12  CA        -9.9160  -32.1650   16.8430 C.3    47  TYR47       0.1605
     13  C         -9.2900  -33.4160   16.2360 C.2    47  TYR47       0.2264
     14  O         -9.9810  -34.2410   15.6250 O.2    47  TYR47      -0.2867
     15  CB       -11.4010  -32.3940   17.0920 C.3    47  TYR47       0.0534
     16  CG       -11.6310  -33.2630   18.2900 C.ar   47  TYR47      -0.0201
     17  CD1      -11.1610  -32.8790   19.5430 C.ar   47  TYR47      -0.0009
     18  CD2      -12.2640  -34.5020   18.1700 C.ar   47  TYR47      -0.0009
     19  CE1      -11.3090  -33.7060   20.6530 C.ar   47  TYR47       0.0417
     20  CE2      -12.4180  -35.3360   19.2760 C.ar   47  TYR47       0.0417
     21  CZ       -11.9350  -34.9290   20.5130 C.ar   47  TYR47       0.1957
     22  OH       -12.0720  -35.7440   21.6090 O.3    47  TYR47      -0.2866
     23  N        -10.6690  -37.1100   15.8630 N.3    50  TRP50      -0.1241
     24  CA       -11.6670  -37.3840   14.8290 C.3    50  TRP50       0.1605
     25  C        -11.1270  -36.9510   13.4750 C.2    50  TRP50       0.2264
     26  O        -11.8930  -36.6900   12.5460 O.2    50  TRP50      -0.2867
     27  CB       -12.9680  -36.6310   15.1100 C.3    50  TRP50       0.0550
     28  CG       -13.7290  -37.1140   16.3050 C.ar   50  TRP50       0.0003
     29  CD1      -13.4950  -38.2480   17.0290 C.ar   50  TRP50       0.0946
     30  CD2      -14.8500  -36.4710   16.9190 C.ar   50  TRP50       0.0152
     31  NE1      -14.4010  -38.3500   18.0570 N.ar   50  TRP50      -0.2442
     32  CE2      -15.2450  -37.2730   18.0120 C.ar   50  TRP50       0.0810
     33  CE3      -15.5630  -35.2930   16.6500 C.ar   50  TRP50       0.0012
     34  CZ2      -16.3210  -36.9330   18.8410 C.ar   50  TRP50       0.0191
     35  CZ3      -16.6370  -34.9560   17.4780 C.ar   50  TRP50       0.0001
     36  CH2      -17.0030  -35.7750   18.5590 C.ar   50  TRP50       0.0015
     37  N         -9.9220  -34.2050   12.4310 N.3    52  LYS52      -0.1245
     38  CA       -10.4750  -32.9360   12.0100 C.3    52  LYS52       0.1561
     39  C         -9.4310  -31.8320   12.1160 C.2    52  LYS52       0.2260
     40  O         -8.8230  -31.6350   13.1630 O.2    52  LYS52      -0.2867
     41  CB       -11.6890  -32.6150   12.8710 C.3    52  LYS52       0.0271
     42  CG       -12.1630  -31.1830   12.7740 C.3    52  LYS52       0.0035
     43  CD       -13.6450  -31.1300   12.5190 C.3    52  LYS52       0.0206
     44  CE       -14.4370  -31.2970   13.7840 C.3    52  LYS52       0.1093
     45  NZ       -15.7580  -31.8860   13.4760 N.3    52  LYS52      -0.1314
     46  N         -7.4520  -33.7630   26.3060 N.3    94  GLU94      -0.1231
     47  CA        -8.1530  -34.2250   27.4880 C.3    94  GLU94       0.1699
     48  C         -9.6030  -33.8010   27.7330 C.2    94  GLU94       0.2592
     49  O        -10.5020  -34.6380   27.6910 O.2    94  GLU94      -0.2718
     50  CB        -7.3150  -33.8840   28.7270 C.3    94  GLU94       0.0402
     51  CG        -7.8610  -34.4530   30.0240 C.3    94  GLU94       0.1161
     52  CD        -7.5510  -33.5680   31.2210 C.2    94  GLU94       0.3649
     53  OE1       -6.6490  -32.7070   31.1040 O.co2  94  GLU94      -0.2457
     54  OE2       -8.2110  -33.7290   32.2740 O.co2  94  GLU94      -0.2457
     55  N         -9.8440  -32.5170   27.9890 N.am   95  ASN95      -0.1960
     56  CA       -11.1990  -32.0800   28.3130 C.3    95  ASN95       0.1819
     57  C        -11.7650  -30.8780   27.5390 C.2    95  ASN95       0.2621
     58  O        -12.7920  -30.3210   27.9320 O.2    95  ASN95      -0.2715
     59  CB       -11.2530  -31.7740   29.8110 C.3    95  ASN95       0.1195
     60  CG       -10.2030  -30.7670   30.2240 C.2    95  ASN95       0.2630
     61  OD1       -9.4340  -30.2780   29.3870 O.2    95  ASN95      -0.2716
     62  ND2      -10.1600  -30.4470   31.5110 N.am   95  ASN95      -0.0877
     63  N        -11.1020  -30.4830   26.4570 N.am   96  LEU96      -0.1977
     64  CA       -11.5460  -29.3480   25.6450 C.3    96  LEU96       0.1596
     65  C        -11.4780  -28.0190   26.4070 C.2    96  LEU96       0.2287
     66  O        -12.2380  -27.0890   26.1220 O.2    96  LEU96      -0.2864
     67  CB       -12.9800  -29.5680   25.1420 C.3    96  LEU96       0.0297
     68  CG       -13.2140  -30.5330   23.9780 C.3    96  LEU96       0.0022
     69  CD1      -14.4750  -30.1060   23.2110 C.3    96  LEU96       0.0001
     70  CD2      -12.0080  -30.5710   23.0670 C.3    96  LEU96       0.0001
     71  N        -15.0030  -36.7160   33.2770 N.3   172  ILE172     -0.1245
     72  CA       -14.0920  -35.7450   32.6870 C.3   172  ILE172      0.1561
     73  C        -13.7690  -34.6810   33.7320 C.2   172  ILE172      0.2260
     74  O        -14.6340  -34.3020   34.5270 O.2   172  ILE172     -0.2867
     75  CB       -14.7320  -35.0350   31.4630 C.3   172  ILE172      0.0252
     76  CG1      -15.2600  -36.0780   30.4710 C.3   172  ILE172      0.0019
     77  CG2      -13.7090  -34.1060   30.8010 C.3   172  ILE172      0.0019
     78  CD1      -14.1720  -36.7660   29.6670 C.3   172  ILE172      0.0001
     79  N        -31.4810  -29.8040   25.1350 N.3   192  ASP192     -0.1225
     80  CA       -30.0390  -29.8830   25.0610 C.3   192  ASP192      0.1805
     81  C        -29.6370  -29.5680   23.6280 C.2   192  ASP192      0.2598
     82  O        -30.4630  -29.5940   22.7150 O.2   192  ASP192     -0.2718
     83  CB       -29.5970  -31.3140   25.4300 C.3   192  ASP192      0.1424
     84  CG       -28.0910  -31.4400   25.6970 C.2   192  ASP192      0.3668
     85  OD1      -27.3720  -30.4150   25.7590 O.co2 192  ASP192     -0.2456
     86  OD2      -27.6200  -32.5890   25.8480 O.co2 192  ASP192     -0.2456
     87  N        -28.3740  -29.2300   23.4390 N.am  193  ALA193     -0.1966
     88  CA       -27.8780  -29.0030   22.1000 C.3   193  ALA193      0.1728
     89  C        -27.5360  -30.4290   21.6580 C.2   193  ALA193      0.2616
     90  O        -27.6500  -31.3710   22.4470 O.2   193  ALA193     -0.2715
     91  CB       -26.6290  -28.1520   22.1370 C.3   193  ALA193      0.0334
     92  N        -27.1320  -30.6000   20.4100 N.am  194  CYS194     -0.1954
     93  CA       -26.7640  -31.9260   19.9270 C.3   194  CYS194      0.1843
     94  C        -25.8490  -31.7440   18.7300 C.2   194  CYS194      0.2625
     95  O        -25.4740  -30.6120   18.3980 O.2   194  CYS194     -0.2714
     96  CB       -28.0040  -32.7540   19.5520 C.3   194  CYS194      0.0997
     97  SG       -27.7410  -34.5730   19.4990 S.3   194  CYS194     -0.0797
     98  N        -25.4690  -32.8560   18.1020 N.am  195  GLU195     -0.1963
     99  CA       -24.5710  -32.8200   16.9590 C.3   195  GLU195      0.1733
    100  C        -24.9820  -31.7440   15.9610 C.2   195  GLU195      0.2616
    101  O        -26.1460  -31.6710   15.5740 O.2   195  GLU195     -0.2715
    102  CB       -24.5450  -34.1870   16.2660 C.3   195  GLU195      0.0429
    103  CG       -23.5260  -34.2660   15.1530 C.3   195  GLU195      0.1163
    104  CD       -23.2380  -35.6900   14.7120 C.2   195  GLU195      0.3649
    105  OE1      -23.6990  -36.6400   15.3840 O.co2 195  GLU195     -0.2457
    106  OE2      -22.5450  -35.8510   13.6900 O.co2 195  GLU195     -0.2457
    107  N        -24.0220  -30.9250   15.5390 N.am  196  GLY196     -0.1955
    108  CA       -24.3210  -29.8600   14.5920 C.3   196  GLY196      0.1869
    109  C        -24.5740  -28.5050   15.2450 C.2   196  GLY196      0.2309
    110  O        -24.4770  -27.4780   14.5770 O.2   196  GLY196     -0.2863
    111  N        -22.9350  -27.5600   18.2580 N.3   198  SER198     -0.1217
    112  CA       -21.7250  -27.1050   18.9510 C.3   198  SER198      0.1889
    113  C        -21.0280  -25.9460   18.2470 C.2   198  SER198      0.2288
    114  O        -21.1220  -25.7850   17.0220 O.2   198  SER198     -0.2866
    115  CB       -20.7590  -28.2860   19.2140 C.3   198  SER198      0.2089
    116  OG       -20.1260  -28.7750   18.0480 O.3   198  SER198     -0.2183
    117  N        -21.3510  -23.4770   23.0130 N.3   218  VAL218     -0.1231
    118  CA       -21.6720  -24.9060   23.1280 C.3   218  VAL218      0.1692
    119  C        -20.3600  -25.6610   22.8960 C.2   218  VAL218      0.2593
    120  O        -19.7860  -25.6290   21.7940 O.2   218  VAL218     -0.2718
    121  CB       -22.7180  -25.3440   22.0580 C.3   218  VAL218      0.0266
    122  CG1      -23.0620  -26.8340   22.2300 C.3   218  VAL218      0.0020
    123  CG2      -23.9710  -24.4960   22.1780 C.3   218  VAL218      0.0020
    124  N        -19.8900  -26.3630   23.9230 N.am  219  SER219     -0.1938
    125  CA       -18.5980  -27.0280   23.8180 C.3   219  SER219      0.2055
    126  C        -18.5920  -28.5490   23.7850 C.2   219  SER219      0.2643
    127  O        -18.1240  -29.1340   22.8210 O.2   219  SER219     -0.2714
    128  CB       -17.6890  -26.5350   24.9510 C.3   219  SER219      0.2130
    129  OG       -16.4100  -27.1280   24.8670 O.3   219  SER219     -0.2179
    130  N        -19.0860  -29.2030   24.8290 N.am  220  TRP220     -0.1959
    131  CA       -19.0900  -30.6560   24.7940 C.3   220  TRP220      0.1771
    132  C        -20.1500  -31.2730   25.6700 C.2   220  TRP220      0.2620
    133  O        -20.6870  -30.6430   26.5890 O.2   220  TRP220     -0.2715
    134  CB       -17.6880  -31.2300   25.1300 C.3   220  TRP220      0.0590
    135  CG       -17.1870  -30.9640   26.5440 C.ar  220  TRP220      0.0006
    136  CD1      -16.4980  -29.8640   26.9790 C.ar  220  TRP220      0.0946
    137  CD2      -17.3540  -31.8090   27.6970 C.ar  220  TRP220      0.0152
    138  NE1      -16.2300  -29.9680   28.3270 N.ar  220  TRP220     -0.2442
    139  CE2      -16.7440  -31.1510   28.7920 C.ar  220  TRP220      0.0810
    140  CE3      -17.9600  -33.0560   27.9110 C.ar  220  TRP220      0.0012
    141  CZ2      -16.7250  -31.7010   30.0870 C.ar  220  TRP220      0.0191
    142  CZ3      -17.9410  -33.6010   29.1990 C.ar  220  TRP220      0.0001
    143  CH2      -17.3270  -32.9200   30.2670 C.ar  220  TRP220      0.0015
    144  N        -20.4880  -32.5090   25.3350 N.am  221  GLY221     -0.1940
    145  CA       -21.4800  -33.2330   26.0930 C.3   221  GLY221      0.2014
    146  C        -21.2870  -34.7110   25.8300 C.2   221  GLY221      0.2639
    147  O        -20.5330  -35.1010   24.9490 O.2   221  GLY221     -0.2714
    148  N        -21.9610  -35.5360   26.6090 N.am  222  GLU222     -0.1963
    149  CA       -21.8750  -36.9770   26.4400 C.3   222  GLU222      0.1733
    150  C        -23.2970  -37.3620   26.0640 C.2   222  GLU222      0.2617
    151  O        -24.1690  -37.4850   26.9160 O.2   222  GLU222     -0.2715
    152  CB       -21.4030  -37.6110   27.7560 C.3   222  GLU222      0.0429
    153  CG       -20.0030  -37.0910   28.1430 C.3   222  GLU222      0.1163
    154  CD       -19.5700  -37.4390   29.5630 C.2   222  GLU222      0.3649
    155  OE1      -20.2880  -37.1090   30.5260 O.co2 222  GLU222     -0.2457
    156  OE2      -18.4890  -38.0410   29.7120 O.co2 222  GLU222     -0.2457
    157  N        -23.5230  -37.5000   24.7620 N.am  223  GLY223     -0.1940
    158  CA       -24.8550  -37.8000   24.2680 C.3   223  GLY223      0.2014
    159  C        -25.6000  -36.4730   24.1390 C.2   223  GLY223      0.2639
    160  O        -24.9700  -35.4050   24.1520 O.2   223  GLY223     -0.2714
    161  N        -26.9240  -36.5370   24.0170 N.am  224  CYS224     -0.1967
    162  CA       -27.7720  -35.3500   23.9040 C.3   224  CYS224      0.1712
    163  C        -29.0380  -35.5910   24.6970 C.2   224  CYS224      0.2296
    164  O        -29.7440  -36.5760   24.4560 O.2   224  CYS224     -0.2864
    165  CB       -28.1770  -35.0770   22.4510 C.3   224  CYS224      0.0983
    166  SG       -26.8200  -35.0160   21.2650 S.3   224  CYS224     -0.0798
    167  N        -24.9320  -30.3100   29.4230 N.3   231  GLY231     -0.1210
    168  CA       -24.1420  -29.7510   28.3470 C.3   231  GLY231      0.1956
    169  C        -23.0980  -28.8370   28.9610 C.2   231  GLY231      0.2612
    170  O        -23.3890  -28.1550   29.9450 O.2   231  GLY231     -0.2717
    171  N        -21.8920  -28.8450   28.4000 N.am  232  PHE232     -0.1962
    172  CA       -20.8070  -28.0080   28.8800 C.3   232  PHE232      0.1771
    173  C        -20.5340  -26.9020   27.8820 C.2   232  PHE232      0.2619
    174  O        -20.5470  -27.1230   26.6710 O.2   232  PHE232     -0.2715
    175  CB       -19.5480  -28.8520   29.1250 C.3   232  PHE232      0.0574
    176  CG       -19.5780  -29.5640   30.4400 C.ar  232  PHE232     -0.0200
    177  CD1      -20.2830  -30.7530   30.5810 C.ar  232  PHE232     -0.0042
    178  CD2      -19.0100  -28.9860   31.5750 C.ar  232  PHE232     -0.0042
    179  CE1      -20.4360  -31.3520   31.8310 C.ar  232  PHE232     -0.0003
    180  CE2      -19.1560  -29.5760   32.8290 C.ar  232  PHE232     -0.0003
    181  CZ       -19.8710  -30.7580   32.9560 C.ar  232  PHE232     -0.0000
    182  N        -20.2820  -25.7130   28.4180 N.am  233  TYR233     -0.1974
    183  CA       -20.0610  -24.5160   27.6320 C.3   233  TYR233      0.1639
    184  C        -18.7950  -23.7700   28.0090 C.2   233  TYR233      0.2290
    185  O        -18.4690  -23.6560   29.1860 O.2   233  TYR233     -0.2864
    186  CB       -21.2460  -23.5680   27.8520 C.3   233  TYR233      0.0560
    187  CG       -22.5700  -24.1620   27.4730 C.ar  233  TYR233     -0.0198
    188  CD1      -23.2110  -25.0910   28.2980 C.ar  233  TYR233     -0.0009
    189  CD2      -23.1650  -23.8390   26.2530 C.ar  233  TYR233     -0.0009
    190  CE1      -24.4050  -25.6870   27.9090 C.ar  233  TYR233      0.0417
    191  CE2      -24.3530  -24.4280   25.8630 C.ar  233  TYR233      0.0417
    192  CZ       -24.9670  -25.3460   26.6790 C.ar  233  TYR233      0.1957
    193  OH       -26.1260  -25.9470   26.2520 O.3   233  TYR233     -0.2866
@<TRIPOS>BOND
     1    38    39    1
     2    38    37    1
     3    38    41    1
     4    39    40    2
     5    43    42    1
     6    43    44    1
     7    26    25    2
     8    42    41    1
     9    25    24    1
    10    45    44    1
    11   106   104   ar
    12   110   109    2
    13   108   109    1
    14   108   107    1
    15   104   103    1
    16   104   105   ar
    17    24    27    1
    18    24    23    1
    19    27    28    1
    20   103   102    1
    21   107   100   am
    22   101   100    2
    23    14    13    2
    24    11    12    1
    25   100    99    1
    26    13    12    1
    27   102    99    1
    28    28    30   ar
    29    28    29   ar
    30     4     3    2
    31    33    30   ar
    32    33    35   ar
    33    12    15    1
    34    30    32   ar
    35    99    98    1
    36   114   113    2
    37    29    31   ar
    38     3     2    1
    39    15    16    1
    40    35    36   ar
    41    32    31   ar
    42    32    34   ar
    43   116   115    1
    44    98    94   am
    45    18    16   ar
    46    18    20   ar
    47   113   112    1
    48   111   112    1
    49    16    17   ar
    50     2     1    1
    51     2     5    1
    52    95    94    2
    53    36    34   ar
    54     8    10   ar
    55     8     6   ar
    56    94    93    1
    57   112   115    1
    58    10     9   ar
    59    20    21   ar
    60     6     5    1
    61     6     7   ar
    62    97    96    1
    63    97   166    1
    64    17    19   ar
    65    96    93    1
    66    93    92    1
    67     9     7   ar
    68    92    89   am
    69    21    19   ar
    70    21    22    1
    71   166   165    1
    72    89    88    1
    73    89    90    2
    74   120   119    2
    75   121   123    1
    76   121   122    1
    77   121   118    1
    78    88    91    1
    79    88    87    1
    80   165   162    1
    81    82    81    2
    82   127   126    2
    83   119   118    1
    84   119   124   am
    85   117   118    1
    86    70    68    1
    87    69    68    1
    88    87    81   am
    89    81    80    1
    90   126   125    1
    91   126   130   am
    92   125   124    1
    93   125   128    1
    94   162   161    1
    95   162   163    1
    96    68    67    1
    97   161   159   am
    98   159   160    2
    99   159   158    1
   100   158   157    1
   101   164   163    2
   102   157   150   am
   103   131   130    1
   104   131   134    1
   105   131   132    1
   106   129   128    1
   107   147   146    2
   108    80    79    1
   109    80    83    1
   110   134   135    1
   111    67    64    1
   112   144   132   am
   113   144   145    1
   114    83    84    1
   115    64    65    1
   116    64    63    1
   117   132   133    2
   118    84    85   ar
   119    84    86   ar
   120   146   145    1
   121   146   148   am
   122   191   189   ar
   123   191   192   ar
   124   150   149    1
   125   150   151    2
   126    66    65    2
   127   193   192    1
   128   189   187   ar
   129    46    47    1
   130   149   148    1
   131   149   152    1
   132    63    57   am
   133   135   136   ar
   134   135   137   ar
   135   174   173    2
   136   192   190   ar
   137   136   138   ar
   138   187   186    1
   139   187   188   ar
   140    47    48    1
   141    47    50    1
   142    57    58    2
   143    57    56    1
   144   183   186    1
   145   183   184    1
   146   183   182    1
   147    49    48    2
   148   137   140   ar
   149   137   139   ar
   150    48    55   am
   151   152   153    1
   152   173   182   am
   153   173   172    1
   154   190   188   ar
   155   140   142   ar
   156    55    56    1
   157   184   185    2
   158   153   154    1
   159    56    59    1
   160   138   139   ar
   161   168   169    1
   162   168   167    1
   163   171   172    1
   164   171   169   am
   165    50    51    1
   166   139   141   ar
   167   172   175    1
   168   169   170    2
   169   175   176    1
   170   142   143   ar
   171    61    60    2
   172   154   156   ar
   173   154   155   ar
   174    78    76    1
   175    59    60    1
   176    51    52    1
   177   141   143   ar
   178    60    62   am
   179   176   177   ar
   180   176   178   ar
   181    76    75    1
   182   177   179   ar
   183    77    75    1
   184    53    52   ar
   185    52    54   ar
   186    75    72    1
   187   178   180   ar
   188   179   181   ar
   189    72    71    1
   190    72    73    1
   191   180   181   ar
   192    73    74    2
