@<TRIPOS>MOLECULE
tmp/1d3gA00.pdb
 219 210 0 0 0
SMALL
GASTEIGER

@<TRIPOS>ATOM
      1  N         50.9650   54.8360   -7.2250 N.3     9  TYR9       -0.1241
      2  CA        50.8120   53.4470   -6.8000 C.3     9  TYR9        0.1605
      3  C         49.5670   52.8240   -7.3900 C.2     9  TYR9        0.2264
      4  O         49.5830   51.7170   -7.9230 O.2     9  TYR9       -0.2867
      5  CB        50.8330   53.3500   -5.2660 C.3     9  TYR9        0.0534
      6  CG        52.2370   53.1780   -4.7260 C.ar    9  TYR9       -0.0201
      7  CD1       53.1120   54.2500   -4.6930 C.ar    9  TYR9       -0.0009
      8  CD2       52.6770   51.9480   -4.2710 C.ar    9  TYR9       -0.0009
      9  CE1       54.3980   54.1010   -4.2100 C.ar    9  TYR9        0.0417
     10  CE2       53.9620   51.7910   -3.7910 C.ar    9  TYR9        0.0417
     11  CZ        54.8130   52.8720   -3.7640 C.ar    9  TYR9        0.1957
     12  OH        56.0950   52.7150   -3.2960 O.3     9  TYR9       -0.2866
     13  N         52.1340   51.5820  -10.4050 N.3    13  LEU13      -0.1231
     14  CA        53.0110   50.5920   -9.7900 C.3    13  LEU13       0.1693
     15  C         52.2680   49.3120   -9.4490 C.2    13  LEU13       0.2591
     16  O         52.7140   48.2260   -9.8050 O.2    13  LEU13      -0.2718
     17  CB        53.7010   51.1610   -8.5620 C.3    13  LEU13       0.0284
     18  CG        54.8310   50.3740   -7.9180 C.3    13  LEU13       0.0019
     19  CD1       55.7250   51.3020   -7.1090 C.3    13  LEU13       0.0001
     20  CD2       54.3250   49.2710   -7.0070 C.3    13  LEU13       0.0001
     21  N         51.1420   49.4350   -8.7330 N.am   14  MET14      -0.1979
     22  CA        50.4680   48.2090   -8.3040 C.3    14  MET14       0.1605
     23  C         49.9030   47.3950   -9.4420 C.2    14  MET14       0.2287
     24  O         50.1030   46.1790   -9.5050 O.2    14  MET14      -0.2864
     25  CB        49.4270   48.5320   -7.2320 C.3    14  MET14       0.0413
     26  CG        50.0130   49.2090   -6.0090 C.3    14  MET14       0.0598
     27  SD        51.1830   48.1980   -5.0770 S.3    14  MET14      -0.1393
     28  CE        50.0750   46.9410   -4.4440 C.3    14  MET14       0.0692
     29  N         52.7820   45.5760  -11.0470 N.3    17  LEU17      -0.1231
     30  CA        53.1860   44.4490  -10.2200 C.3    17  LEU17       0.1693
     31  C         52.2210   43.2850  -10.3490 C.2    17  LEU17       0.2591
     32  O         52.6220   42.1280  -10.4670 O.2    17  LEU17      -0.2718
     33  CB        53.2740   44.9070   -8.7730 C.3    17  LEU17       0.0284
     34  CG        54.0700   44.0840   -7.7780 C.3    17  LEU17       0.0019
     35  CD1       55.5190   43.9530   -8.2140 C.3    17  LEU17       0.0001
     36  CD2       54.0000   44.7540   -6.4100 C.3    17  LEU17       0.0001
     37  N         50.9200   43.5630  -10.3390 N.am   18  GLN18      -0.1979
     38  CA        49.9170   42.5320  -10.4980 C.3    18  GLN18       0.1601
     39  C         49.9410   41.8760  -11.8700 C.2    18  GLN18       0.2287
     40  O         49.6180   40.7010  -11.9740 O.2    18  GLN18      -0.2864
     41  CB        48.5130   43.0690  -10.2190 C.3    18  GLN18       0.0394
     42  CG        48.3220   43.4530   -8.7520 C.3    18  GLN18       0.0908
     43  CD        46.9820   44.1030   -8.5140 C.2    18  GLN18       0.2608
     44  OE1       46.5190   44.9220   -9.3110 O.2    18  GLN18      -0.2717
     45  NE2       46.3420   43.7600   -7.4030 N.am   18  GLN18      -0.0878
     46  N         49.3830   36.3280   -7.4440 N.3    23  PRO23      -0.2116
     47  CA        49.1370   37.0630   -6.2040 C.3    23  PRO23       0.1372
     48  C         49.9150   36.5270   -5.0220 C.2    23  PRO23       0.2244
     49  O         50.3890   37.3350   -4.2100 O.2    23  PRO23      -0.2868
     50  CB        47.6410   37.0160   -6.0200 C.3    23  PRO23       0.0268
     51  CG        47.1020   36.1160   -7.0590 C.3    23  PRO23       0.0207
     52  CD        48.1240   36.0040   -8.1490 C.3    23  PRO23       0.0892
     53  N         53.3650   37.9940   -5.2720 N.3    26  ALA26      -0.1231
     54  CA        53.3270   39.3950   -4.9110 C.3    26  ALA26       0.1694
     55  C         53.1720   39.5690   -3.4040 C.2    26  ALA26       0.2592
     56  O         53.7920   40.4460   -2.8110 O.2    26  ALA26      -0.2718
     57  CB        52.2200   40.1160   -5.6650 C.3    26  ALA26       0.0304
     58  N         52.3520   38.7440   -2.7720 N.am   27  HIS27      -0.1976
     59  CA        52.2160   38.7660   -1.3160 C.3    27  HIS27       0.1656
     60  C         53.5430   38.5110   -0.6240 C.2    27  HIS27       0.2291
     61  O         53.9380   39.2680    0.2680 O.2    27  HIS27      -0.2864
     62  CB        51.1810   37.7170   -0.9230 C.3    27  HIS27       0.0771
     63  CG        50.8610   37.6400    0.5380 C.ar   27  HIS27       0.0820
     64  ND1       50.1030   36.6080    1.0420 N.ar   27  HIS27      -0.2267
     65  CD2       51.1910   38.4260    1.5850 C.ar   27  HIS27       0.1154
     66  CE1       49.9730   36.7710    2.3540 C.ar   27  HIS27       0.1986
     67  NE2       50.6370   37.8600    2.7050 N.ar   27  HIS27      -0.2212
     68  N         56.5450   38.9540   -1.8360 N.3    29  LEU29      -0.1231
     69  CA        57.4010   40.0970   -2.1070 C.3    29  LEU29       0.1693
     70  C         57.0360   41.2870   -1.2410 C.2    29  LEU29       0.2591
     71  O         57.8840   41.9930   -0.7120 O.2    29  LEU29      -0.2718
     72  CB        57.2940   40.5070   -3.5800 C.3    29  LEU29       0.0284
     73  CG        58.2700   41.5840   -4.0500 C.3    29  LEU29       0.0019
     74  CD1       59.6950   41.0660   -3.9280 C.3    29  LEU29       0.0001
     75  CD2       57.9730   41.9980   -5.4820 C.3    29  LEU29       0.0001
     76  N         55.7280   41.5230   -1.0730 N.am   30  ALA30      -0.1980
     77  CA        55.2510   42.5970   -0.2310 C.3    30  ALA30       0.1597
     78  C         55.6970   42.4400    1.2140 C.2    30  ALA30       0.2287
     79  O         56.0840   43.4190    1.8440 O.2    30  ALA30      -0.2864
     80  CB        53.7230   42.6490   -0.3010 C.3    30  ALA30       0.0319
     81  N         59.5180   43.2630    1.2220 N.3    33  PHE33      -0.1227
     82  CA        59.7770   44.6960    1.1720 C.3    33  PHE33       0.1736
     83  C         59.3800   45.4130    2.4430 C.2    33  PHE33       0.2596
     84  O         60.0780   46.2800    2.9650 O.2    33  PHE33      -0.2718
     85  CB        59.0520   45.3400   -0.0190 C.3    33  PHE33       0.0547
     86  CG        59.9040   45.3510   -1.2590 C.ar   33  PHE33      -0.0202
     87  CD1       60.2340   44.1840   -1.9050 C.ar   33  PHE33      -0.0042
     88  CD2       60.3660   46.5540   -1.7540 C.ar   33  PHE33      -0.0042
     89  CE1       61.0140   44.2080   -3.0480 C.ar   33  PHE33      -0.0003
     90  CE2       61.1600   46.5840   -2.8870 C.ar   33  PHE33      -0.0003
     91  CZ        61.4760   45.4090   -3.5270 C.ar   33  PHE33      -0.0000
     92  N         58.2330   45.0230    3.0090 N.am   34  THR34      -0.1953
     93  CA        57.7340   45.6690    4.2120 C.3    34  THR34       0.1897
     94  C         58.6430   45.3640    5.3860 C.2    34  THR34       0.2313
     95  O         58.9710   46.2600    6.1610 O.2    34  THR34      -0.2863
     96  CB        56.2900   45.2220    4.5010 C.3    34  THR34       0.1794
     97  OG1       55.4530   45.5940    3.3960 O.3    34  THR34      -0.2208
     98  CG2       55.7670   45.9220    5.7430 C.3    34  THR34       0.0378
     99  N         61.1430   49.0210    3.1200 N.3    38  LEU38      -0.1231
    100  CA        61.2950   49.6090    1.7920 C.3    38  LEU38       0.1693
    101  C         59.9350   50.1020    1.3320 C.2    38  LEU38       0.2592
    102  O         59.2110   49.4180    0.6220 O.2    38  LEU38      -0.2718
    103  CB        61.8910   48.6030    0.8240 C.3    38  LEU38       0.0284
    104  CG        63.3030   48.1230    1.1670 C.3    38  LEU38       0.0019
    105  CD1       63.7090   46.9690    0.2730 C.3    38  LEU38       0.0001
    106  CD2       64.2940   49.2680    1.0400 C.3    38  LEU38       0.0001
    107  N         59.5710   51.2690    1.8250 N.am   39  LEU39      -0.1966
    108  CA        58.2350   51.8140    1.7560 C.3    39  LEU39       0.1713
    109  C         58.3070   53.2730    1.3220 C.2    39  LEU39       0.2458
    110  O         59.2070   54.0190    1.5020 O.2    39  LEU39      -0.2730
    111  CB        57.5730   51.7650    3.1330 C.3    39  LEU39       0.0310
    112  CG        57.3880   50.3970    3.7770 C.3    39  LEU39       0.0022
    113  CD1       57.0140   50.5240    5.2380 C.3    39  LEU39       0.0001
    114  CD2       56.3340   49.6160    3.0100 C.3    39  LEU39       0.0001
    115  N         57.1670   53.5650    0.5650 N.am   40  PRO40      -0.2727
    116  CA        57.0630   54.9760    0.1660 C.3    40  PRO40       0.1402
    117  C         56.9280   55.8810    1.3730 C.2    40  PRO40       0.2269
    118  O         56.3630   55.4250    2.3940 O.2    40  PRO40      -0.2865
    119  CB        55.8640   55.0610   -0.7520 C.3    40  PRO40       0.0296
    120  CG        54.9820   53.9730   -0.2490 C.3    40  PRO40       0.0237
    121  CD        55.9440   52.8420   -0.0490 C.3    40  PRO40       0.0939
    122  N         48.0270   39.0340    6.2990 N.3    66  PHE66      -0.1241
    123  CA        49.0530   39.6820    5.4790 C.3    66  PHE66       0.1605
    124  C         50.4090   39.2810    6.0450 C.2    66  PHE66       0.2264
    125  O         51.2250   38.6870    5.3320 O.2    66  PHE66      -0.2867
    126  CB        48.8910   41.2020    5.4420 C.3    66  PHE66       0.0534
    127  CG        50.0060   41.8470    4.6470 C.ar   66  PHE66      -0.0203
    128  CD1       50.0150   41.7590    3.2740 C.ar   66  PHE66      -0.0042
    129  CD2       51.0460   42.4700    5.3100 C.ar   66  PHE66      -0.0042
    130  CE1       51.0470   42.3260    2.5370 C.ar   66  PHE66      -0.0003
    131  CE2       52.0790   43.0390    4.5800 C.ar   66  PHE66      -0.0003
    132  CZ        52.0780   42.9440    3.2070 C.ar   66  PHE66      -0.0000
    133  N         54.3050   51.8730    7.7670 N.3    79  MET79      -0.1245
    134  CA        53.3060   52.1660    6.7470 C.3    79  MET79       0.1570
    135  C         52.1940   53.0510    7.2690 C.2    79  MET79       0.2261
    136  O         51.4780   53.6460    6.4530 O.2    79  MET79      -0.2867
    137  CB        52.7240   50.8480    6.2500 C.3    79  MET79       0.0387
    138  CG        52.4500   50.7730    4.7720 C.3    79  MET79       0.0595
    139  SD        51.8730   49.1670    4.2580 S.3    79  MET79      -0.1393
    140  CE        53.3630   48.2300    4.0090 C.3    79  MET79       0.0692
    141  N         45.5230   31.5020   -4.2220 N.3   102  VAL102     -0.1245
    142  CA        45.1230   32.9100   -4.1330 C.3   102  VAL102      0.1561
    143  C         44.7920   33.3920   -5.5360 C.2   102  VAL102      0.2260
    144  O         45.4900   33.0990   -6.5110 O.2   102  VAL102     -0.2867
    145  CB        46.2300   33.8220   -3.5780 C.3   102  VAL102      0.0252
    146  CG1       45.6530   35.2060   -3.3120 C.3   102  VAL102      0.0019
    147  CG2       46.8790   33.3110   -2.3130 C.3   102  VAL102      0.0019
    148  N         43.0480   36.6440   -7.9520 N.3   104  ARG104     -0.1245
    149  CA        42.6270   38.0300   -8.0680 C.3   104  ARG104      0.1563
    150  C         41.3560   38.1520   -8.8830 C.2   104  ARG104      0.2260
    151  O         41.1640   37.4680   -9.8820 O.2   104  ARG104     -0.2867
    152  CB        43.7730   38.7930   -8.7170 C.3   104  ARG104      0.0307
    153  CG        43.9660   40.2270   -8.3190 C.3   104  ARG104      0.0489
    154  CD        45.1800   40.8040   -9.0000 C.3   104  ARG104      0.2205
    155  NE        46.5080   40.4160   -8.5900 N.pl3 104  ARG104     -0.0865
    156  CZ        47.4130   39.7570   -9.2930 C.cat 104  ARG104      0.5346
    157  NH1       47.1280   39.3500  -10.5360 N.pl3 104  ARG104      0.1354
    158  NH2       48.6150   39.4780   -8.8300 N.pl3 104  ARG104      0.1354
    159  N         39.5450   39.6930   -3.9220 N.3   111  VAL111     -0.1245
    160  CA        40.4340   38.5420   -3.9360 C.3   111  VAL111      0.1561
    161  C         39.6910   37.3420   -3.3890 C.2   111  VAL111      0.2260
    162  O         38.7800   37.4750   -2.5680 O.2   111  VAL111     -0.2867
    163  CB        41.6780   38.8180   -3.0620 C.3   111  VAL111      0.0252
    164  CG1       42.5410   37.5700   -2.8990 C.3   111  VAL111      0.0019
    165  CG2       42.5420   39.9250   -3.6480 C.3   111  VAL111      0.0019
    166  N         40.8510   33.7540   -1.5440 N.3   113  ASN113     -0.1240
    167  CA        41.9960   32.9650   -1.0950 C.3   113  ASN113      0.1653
    168  C         41.5450   31.6890   -0.4150 C.2   113  ASN113      0.2266
    169  O         40.5110   31.6110    0.2500 O.2   113  ASN113     -0.2867
    170  CB        42.8800   33.7990   -0.1550 C.3   113  ASN113      0.1155
    171  CG        42.3640   33.7590    1.2690 C.2   113  ASN113      0.2627
    172  OD1       42.7140   32.8410    2.0050 O.2   113  ASN113     -0.2716
    173  ND2       41.5070   34.7070    1.6420 N.am  113  ASN113     -0.0877
    174  N         44.2840   29.9230    1.3510 N.3   115  TYR115     -0.1241
    175  CA        45.6160   29.5820    1.8670 C.3   115  TYR115      0.1605
    176  C         45.5940   28.3470    2.7430 C.2   115  TYR115      0.2264
    177  O         46.5080   27.5240    2.6220 O.2   115  TYR115     -0.2867
    178  CB        46.2110   30.7580    2.6260 C.3   115  TYR115      0.0534
    179  CG        47.1350   31.6640    1.8710 C.ar  115  TYR115     -0.0201
    180  CD1       46.8710   33.0150    1.7160 C.ar  115  TYR115     -0.0009
    181  CD2       48.3380   31.1920    1.3430 C.ar  115  TYR115     -0.0009
    182  CE1       47.7340   33.8590    1.0560 C.ar  115  TYR115      0.0417
    183  CE2       49.1950   32.0290    0.6710 C.ar  115  TYR115      0.0417
    184  CZ        48.9080   33.3610    0.5320 C.ar  115  TYR115      0.1957
    185  OH        49.7600   34.1990   -0.1310 O.3   115  TYR115     -0.2866
    186  N         42.8660   44.9400    4.3880 N.3   320  TYR320     -0.1241
    187  CA        43.8760   44.0860    3.7630 C.3   320  TYR320      0.1605
    188  C         43.7630   44.2090    2.2560 C.2   320  TYR320      0.2264
    189  O         44.6890   44.7160    1.6130 O.2   320  TYR320     -0.2867
    190  CB        43.6880   42.6580    4.2370 C.3   320  TYR320      0.0534
    191  CG        44.6940   41.6300    3.7740 C.ar  320  TYR320     -0.0201
    192  CD1       44.6800   40.3890    4.4050 C.ar  320  TYR320     -0.0009
    193  CD2       45.6190   41.8470    2.7700 C.ar  320  TYR320     -0.0009
    194  CE1       45.5370   39.3880    4.0050 C.ar  320  TYR320      0.0417
    195  CE2       46.4990   40.8530    2.3870 C.ar  320  TYR320      0.0417
    196  CZ        46.4570   39.6310    3.0090 C.ar  320  TYR320      0.1957
    197  OH        47.3420   38.6490    2.6240 O.3   320  TYR320     -0.2866
    198  N         45.0870   47.2250    0.3520 N.3   323  LEU323     -0.1231
    199  CA        46.5350   47.3220    0.2310 C.3   323  LEU323      0.1693
    200  C         47.0310   46.6270   -1.0210 C.2   323  LEU323      0.2592
    201  O         47.9740   47.1000   -1.6650 O.2   323  LEU323     -0.2718
    202  CB        47.1720   46.6830    1.4710 C.3   323  LEU323      0.0284
    203  CG        48.7020   46.7080    1.5140 C.3   323  LEU323      0.0019
    204  CD1       49.2180   48.1150    1.6900 C.3   323  LEU323      0.0001
    205  CD2       49.2240   45.8480    2.6560 C.3   323  LEU323      0.0001
    206  N         46.4030   45.5140   -1.3900 N.am  324  THR324     -0.1953
    207  CA        46.8250   44.7490   -2.5530 C.3   324  THR324      0.1897
    208  C         46.5440   45.4660   -3.8560 C.2   324  THR324      0.2313
    209  O         47.2610   45.2890   -4.8410 O.2   324  THR324     -0.2863
    210  CB        46.2050   43.3440   -2.5960 C.3   324  THR324      0.1794
    211  OG1       44.8340   43.4020   -3.0340 O.3   324  THR324     -0.2208
    212  CG2       46.2670   42.6530   -1.2510 C.3   324  THR324      0.0378
    213  N         50.8040   50.7100   -0.3180 N.3   328  PRO328     -0.2116
    214  CA        51.0370   51.3860    0.9380 C.3   328  PRO328      0.1372
    215  C         50.4210   52.7400    1.1310 C.2   328  PRO328      0.2244
    216  O         49.9900   53.0670    2.2520 O.2   328  PRO328     -0.2868
    217  CB        52.5630   51.4150    1.0700 C.3   328  PRO328      0.0268
    218  CG        52.9780   50.1630    0.3770 C.3   328  PRO328      0.0207
    219  CD        52.0380   50.0250   -0.7960 C.3   328  PRO328      0.0892
@<TRIPOS>BOND
     1    40    39    2
     2    39    38    1
     3    29    30    1
     4   157   156    1
     5    38    37    1
     6    38    41    1
     7    32    31    2
     8    13    14    1
     9    31    37   am
    10    31    30    1
    11    30    33    1
    12    41    42    1
    13   151   150    2
    14    16    15    2
    15    14    15    1
    16    14    17    1
    17    24    23    2
    18    15    21   am
    19    23    22    1
    20    44    43    2
    21   156   158    1
    22   156   155    2
    23   154   155    1
    24   154   153    1
    25   150   149    1
    26    33    34    1
    27    42    43    1
    28    21    22    1
    29   152   153    1
    30   152   149    1
    31    17    18    1
    32    43    45   am
    33    22    25    1
    34    35    34    1
    35    52    46    1
    36    52    51    1
    37   149   148    1
    38     4     3    2
    39    18    19    1
    40    18    20    1
    41    34    36    1
    42    46    47    1
    43     3     2    1
    44    25    26    1
    45     1     2    1
    46    51    50    1
    47     2     5    1
    48   144   143    2
    49    47    50    1
    50    47    48    1
    51    26    27    1
    52    57    54    1
    53   143   142    1
    54    75    73    1
    55    53    54    1
    56     5     6    1
    57    27    28    1
    58    48    49    2
    59    54    55    1
    60   209   208    2
    61     6     7   ar
    62     6     8   ar
    63     7     9   ar
    64     8    10   ar
    65   141   142    1
    66     9    11   ar
    67   142   145    1
    68    73    74    1
    69    73    72    1
    70   160   159    1
    71   160   161    1
    72   160   163    1
    73   208   207    1
    74    10    11   ar
    75    11    12    1
    76   165   163    1
    77    72    69    1
    78   145   146    1
    79   145   147    1
    80    91    89   ar
    81    91    90   ar
    82    55    56    2
    83    55    58   am
    84   161   162    2
    85   163   164    1
    86    89    87   ar
    87   211   210    1
    88    90    88   ar
    89    58    59    1
    90   210   207    1
    91   210   212    1
    92   207   206    1
    93    69    68    1
    94    69    70    1
    95    87    86   ar
    96    88    86   ar
    97   201   200    2
    98   166   167    1
    99   206   200   am
   100    59    62    1
   101    59    60    1
   102    86    85    1
   103    70    76   am
   104    70    71    2
   105   167   168    1
   106   167   170    1
   107    76    77    1
   108   200   199    1
   109    62    63    1
   110   219   213    1
   111   219   218    1
   112   119   120    1
   113   119   116    1
   114    60    61    2
   115   168   169    2
   116   213   214    1
   117    80    77    1
   118   120   121    1
   119    77    78    1
   120   170   171    1
   121   185   184    1
   122   121   115    1
   123    85    82    1
   124   116   115    1
   125   116   117    1
   126   199   198    1
   127   199   202    1
   128   105   104    1
   129   218   217    1
   130   184   183   ar
   131   184   182   ar
   132    63    64   ar
   133    63    65   ar
   134   115   109   am
   135   102   101    2
   136   183   181   ar
   137   103   104    1
   138   103   100    1
   139   214   217    1
   140   214   215    1
   141   106   104    1
   142    64    66   ar
   143   182   180   ar
   144   215   216    2
   145    82    81    1
   146    82    83    1
   147    78    79    2
   148   171   173   am
   149   171   172    2
   150   109   110    2
   151   109   108    1
   152   101   100    1
   153   101   107   am
   154   181   179   ar
   155   174   175    1
   156   117   118    2
   157   202   203    1
   158   203   204    1
   159   203   205    1
   160    65    67   ar
   161   189   188    2
   162   180   179   ar
   163   108   107    1
   164   108   111    1
   165   100    99    1
   166   175   178    1
   167   175   176    1
   168   179   178    1
   169   188   187    1
   170    66    67   ar
   171   195   193   ar
   172   195   196   ar
   173    83    84    2
   174    83    92   am
   175   130   132   ar
   176   130   128   ar
   177   177   176    2
   178   197   196    1
   179   193   191   ar
   180   196   194   ar
   181    92    93    1
   182   114   112    1
   183   111   112    1
   184   132   131   ar
   185   128   127   ar
   186    97    96    1
   187   187   190    1
   188   187   186    1
   189   191   190    1
   190   191   192   ar
   191   112   113    1
   192   194   192   ar
   193   140   139    1
   194    93    96    1
   195    93    94    1
   196   139   138    1
   197    96    98    1
   198   131   129   ar
   199   127   129   ar
   200   127   126    1
   201   138   137    1
   202   125   124    2
   203    94    95    2
   204   126   123    1
   205   123   124    1
   206   123   122    1
   207   137   134    1
   208   136   135    2
   209   134   135    1
   210   134   133    1
