@<TRIPOS>MOLECULE
tmp/1d3hA00.pdb
 173 163 0 0 0
SMALL
GASTEIGER

@<TRIPOS>ATOM
      1  N         50.7540   54.2320   -7.7030 N.3     9  TYR9       -0.1241
      2  CA        50.5540   52.8730   -7.2100 C.3     9  TYR9        0.1605
      3  C         49.3280   52.2330   -7.8340 C.2     9  TYR9        0.2264
      4  O         49.3680   51.1090   -8.3360 O.2     9  TYR9       -0.2867
      5  CB        50.4420   52.9150   -5.6760 C.3     9  TYR9        0.0534
      6  CG        51.8230   52.8000   -5.0530 C.ar    9  TYR9       -0.0201
      7  CD1       52.5660   53.9250   -4.7360 C.ar    9  TYR9       -0.0009
      8  CD2       52.3830   51.5460   -4.8260 C.ar    9  TYR9       -0.0009
      9  CE1       53.8250   53.8090   -4.1720 C.ar    9  TYR9        0.0417
     10  CE2       53.6430   51.4220   -4.2700 C.ar    9  TYR9        0.0417
     11  CZ        54.3560   52.5570   -3.9480 C.ar    9  TYR9        0.1957
     12  OH        55.6140   52.4400   -3.3970 O.3     9  TYR9       -0.2866
     13  N         50.8620   48.8420   -9.1350 N.3    14  MET14      -0.1245
     14  CA        50.1350   47.6580   -8.6860 C.3    14  MET14       0.1570
     15  C         49.6240   46.8030   -9.8270 C.2    14  MET14       0.2261
     16  O         49.8760   45.5990   -9.8710 O.2    14  MET14      -0.2867
     17  CB        49.0120   48.0280   -7.7080 C.3    14  MET14       0.0387
     18  CG        49.5510   48.7050   -6.4500 C.3    14  MET14       0.0595
     19  SD        50.8130   47.7680   -5.5610 S.3    14  MET14      -0.1393
     20  CE        49.8510   46.3570   -5.0230 C.3    14  MET14       0.0692
     21  N         52.6820   45.0070  -11.2310 N.3    17  LEU17      -0.1231
     22  CA        53.0690   43.9030  -10.3590 C.3    17  LEU17       0.1693
     23  C         52.0920   42.7410  -10.4890 C.2    17  LEU17       0.2591
     24  O         52.5140   41.5900  -10.5790 O.2    17  LEU17      -0.2718
     25  CB        53.1510   44.3320   -8.8930 C.3    17  LEU17       0.0284
     26  CG        53.4060   43.1930   -7.8960 C.3    17  LEU17       0.0019
     27  CD1       54.8880   42.8990   -7.7520 C.3    17  LEU17       0.0001
     28  CD2       52.7590   43.5020   -6.5560 C.3    17  LEU17       0.0001
     29  N         50.7950   43.0330  -10.5420 N.am   18  GLN18      -0.1979
     30  CA        49.7680   42.0140  -10.7070 C.3    18  GLN18       0.1601
     31  C         49.8560   41.3100  -12.0520 C.2    18  GLN18       0.2287
     32  O         49.4900   40.1380  -12.1750 O.2    18  GLN18      -0.2864
     33  CB        48.3690   42.6140  -10.5000 C.3    18  GLN18       0.0394
     34  CG        48.1600   43.2180   -9.1210 C.3    18  GLN18       0.0908
     35  CD        46.7240   43.5430   -8.7690 C.2    18  GLN18       0.2608
     36  OE1       45.9640   44.1080   -9.5620 O.2    18  GLN18      -0.2717
     37  NE2       46.2980   43.1940   -7.5510 N.am   18  GLN18      -0.0878
     38  N         49.2910   35.7970   -7.4600 N.3    23  PRO23      -0.2116
     39  CA        48.8810   36.5070   -6.2530 C.3    23  PRO23       0.1372
     40  C         49.6830   36.0650   -5.0420 C.2    23  PRO23       0.2244
     41  O         50.0950   36.9010   -4.2580 O.2    23  PRO23      -0.2868
     42  CB        47.4070   36.1430   -6.1120 C.3    23  PRO23       0.0268
     43  CG        46.9450   35.8620   -7.4960 C.3    23  PRO23       0.0207
     44  CD        48.1210   35.2930   -8.2270 C.3    23  PRO23       0.0892
     45  N         53.0630   37.6660   -5.1900 N.3    26  ALA26      -0.1231
     46  CA        52.9580   39.0730   -4.8490 C.3    26  ALA26       0.1694
     47  C         52.8690   39.2120   -3.3240 C.2    26  ALA26       0.2592
     48  O         53.4530   40.1280   -2.7530 O.2    26  ALA26      -0.2718
     49  CB        51.7410   39.6710   -5.5460 C.3    26  ALA26       0.0304
     50  N         52.0470   38.3650   -2.7230 N.am   27  HIS27      -0.1976
     51  CA        51.9110   38.4000   -1.2520 C.3    27  HIS27       0.1656
     52  C         53.2700   38.1920   -0.5810 C.2    27  HIS27       0.2291
     53  O         53.6770   38.9880    0.2610 O.2    27  HIS27      -0.2864
     54  CB        50.9130   37.3440   -0.8270 C.3    27  HIS27       0.0771
     55  CG        50.5880   37.2910    0.6370 C.ar   27  HIS27       0.0820
     56  ND1       49.7870   36.2920    1.1590 N.ar   27  HIS27      -0.2267
     57  CD2       50.9490   38.0880    1.6690 C.ar   27  HIS27       0.1154
     58  CE1       49.6720   36.4830    2.4730 C.ar   27  HIS27       0.1986
     59  NE2       50.3840   37.5500    2.8050 N.ar   27  HIS27      -0.2212
     60  N         55.5610   41.1740   -1.1210 N.3    30  ALA30      -0.1245
     61  CA        55.1250   42.2750   -0.2760 C.3    30  ALA30       0.1562
     62  C         55.5310   42.0840    1.1870 C.2    30  ALA30       0.2260
     63  O         55.8940   43.0620    1.8410 O.2    30  ALA30      -0.2867
     64  CB        53.5940   42.4220   -0.3550 C.3    30  ALA30       0.0290
     65  N         58.0430   44.7270    2.8930 N.3    34  THR34      -0.1218
     66  CA        57.5570   45.4130    4.0840 C.3    34  THR34       0.1862
     67  C         58.4580   45.1080    5.2700 C.2    34  THR34       0.2287
     68  O         58.8330   46.0140    6.0300 O.2    34  THR34      -0.2866
     69  CB        56.1100   44.9710    4.3950 C.3    34  THR34       0.1770
     70  OG1       55.3030   45.3690    3.2780 O.3    34  THR34      -0.2211
     71  CG2       55.5740   45.6590    5.6480 C.3    34  THR34       0.0375
     72  N         59.4770   50.9770    1.9810 N.3    39  LEU39      -0.1245
     73  CA        58.1170   51.4430    1.7160 C.3    39  LEU39       0.1561
     74  C         58.1630   52.8910    1.2390 C.2    39  LEU39       0.2260
     75  O         59.0630   53.6640    1.3550 O.2    39  LEU39      -0.2867
     76  CB        57.2460   51.3450    2.9710 C.3    39  LEU39       0.0270
     77  CG        57.0980   49.9580    3.5950 C.3    39  LEU39       0.0019
     78  CD1       56.7100   50.0140    5.0670 C.3    39  LEU39       0.0001
     79  CD2       56.1230   49.1230    2.7660 C.3    39  LEU39       0.0001
     80  N         47.8230   38.9190    6.2460 N.3    66  PHE66      -0.1241
     81  CA        48.8950   39.5140    5.4440 C.3    66  PHE66       0.1605
     82  C         50.2260   39.0380    6.0390 C.2    66  PHE66       0.2264
     83  O         51.0930   38.4960    5.3460 O.2    66  PHE66      -0.2867
     84  CB        48.8060   41.0470    5.4260 C.3    66  PHE66       0.0534
     85  CG        50.0490   41.5970    4.7460 C.ar   66  PHE66      -0.0203
     86  CD1       50.2660   41.3250    3.3960 C.ar   66  PHE66      -0.0042
     87  CD2       50.9890   42.3020    5.4650 C.ar   66  PHE66      -0.0042
     88  CE1       51.4240   41.7910    2.7790 C.ar   66  PHE66      -0.0003
     89  CE2       52.1430   42.7750    4.8450 C.ar   66  PHE66      -0.0003
     90  CZ        52.3530   42.4950    3.5010 C.ar   66  PHE66      -0.0000
     91  N         54.3050   51.8160    7.6450 N.3    79  MET79      -0.1245
     92  CA        53.3150   52.1460    6.6210 C.3    79  MET79       0.1570
     93  C         52.1560   52.9790    7.1430 C.2    79  MET79       0.2261
     94  O         51.3870   53.5070    6.3190 O.2    79  MET79      -0.2867
     95  CB        52.7380   50.8150    6.0950 C.3    79  MET79       0.0387
     96  CG        52.1250   50.8380    4.7090 C.3    79  MET79       0.0595
     97  SD        51.7860   49.1630    4.0980 S.3    79  MET79      -0.1393
     98  CE        53.3030   48.3580    4.4990 C.3    79  MET79       0.0692
     99  N         45.3740   31.3090   -4.0800 N.3   102  VAL102     -0.1245
    100  CA        44.9950   32.7270   -3.9200 C.3   102  VAL102      0.1561
    101  C         44.7010   33.2720   -5.3060 C.2   102  VAL102      0.2260
    102  O         45.4270   32.9370   -6.2500 O.2   102  VAL102     -0.2867
    103  CB        46.0890   33.6250   -3.3300 C.3   102  VAL102      0.0252
    104  CG1       45.4370   34.9700   -2.9480 C.3   102  VAL102      0.0019
    105  CG2       46.8090   33.0560   -2.1280 C.3   102  VAL102      0.0019
    106  N         43.0060   36.5920   -7.7840 N.3   104  ARG104     -0.1245
    107  CA        42.5400   37.9730   -7.8220 C.3   104  ARG104      0.1563
    108  C         41.3200   38.1110   -8.7150 C.2   104  ARG104      0.2260
    109  O         41.1750   37.4550   -9.7540 O.2   104  ARG104     -0.2867
    110  CB        43.6440   38.8820   -8.3600 C.3   104  ARG104      0.0307
    111  CG        44.9080   38.9710   -7.5070 C.3   104  ARG104      0.0489
    112  CD        45.7650   40.0290   -8.2280 C.3   104  ARG104      0.2205
    113  NE        47.1750   39.9640   -8.0990 N.pl3 104  ARG104     -0.0865
    114  CZ        48.2350   39.4240   -8.6510 C.cat 104  ARG104      0.5346
    115  NH1       49.4210   39.7170   -8.1130 N.pl3 104  ARG104      0.1354
    116  NH2       48.2450   38.6210   -9.7050 N.pl3 104  ARG104      0.1354
    117  N         39.4660   39.5100   -3.7800 N.3   111  VAL111     -0.1245
    118  CA        40.3770   38.3730   -3.7940 C.3   111  VAL111      0.1561
    119  C         39.6260   37.1560   -3.2910 C.2   111  VAL111      0.2260
    120  O         38.7080   37.2960   -2.4790 O.2   111  VAL111     -0.2867
    121  CB        41.6000   38.6850   -2.8910 C.3   111  VAL111      0.0252
    122  CG1       42.4020   37.4360   -2.5600 C.3   111  VAL111      0.0019
    123  CG2       42.5070   39.6930   -3.6160 C.3   111  VAL111      0.0019
    124  N         44.1230   29.6160    1.5260 N.3   115  TYR115     -0.1241
    125  CA        45.4420   29.2500    2.0570 C.3   115  TYR115      0.1605
    126  C         45.4080   28.0230    2.9500 C.2   115  TYR115      0.2264
    127  O         46.2950   27.1560    2.8750 O.2   115  TYR115     -0.2867
    128  CB        46.0020   30.4430    2.8300 C.3   115  TYR115      0.0534
    129  CG        46.9200   31.3360    2.0570 C.ar  115  TYR115     -0.0201
    130  CD1       46.6070   32.6760    1.8800 C.ar  115  TYR115     -0.0009
    131  CD2       48.1130   30.8570    1.5200 C.ar  115  TYR115     -0.0009
    132  CE1       47.4590   33.5190    1.1980 C.ar  115  TYR115      0.0417
    133  CE2       48.9750   31.7020    0.8320 C.ar  115  TYR115      0.0417
    134  CZ        48.6460   33.0190    0.6790 C.ar  115  TYR115      0.1957
    135  OH        49.4600   33.8830   -0.0120 O.3   115  TYR115     -0.2866
    136  N         42.8640   44.6370    4.3980 N.3   324  TYR324     -0.1241
    137  CA        43.9870   43.9070    3.7750 C.3   324  TYR324      0.1605
    138  C         43.8130   44.0080    2.2620 C.2   324  TYR324      0.2264
    139  O         44.6520   44.6070    1.5860 O.2   324  TYR324     -0.2867
    140  CB        44.0150   42.4770    4.2870 C.3   324  TYR324      0.0534
    141  CG        45.0150   41.5100    3.6610 C.ar  324  TYR324     -0.0201
    142  CD1       44.9520   40.1600    4.0110 C.ar  324  TYR324     -0.0009
    143  CD2       45.9460   41.9080    2.7230 C.ar  324  TYR324     -0.0009
    144  CE1       45.8190   39.2410    3.4370 C.ar  324  TYR324      0.0417
    145  CE2       46.8070   40.9930    2.1200 C.ar  324  TYR324      0.0417
    146  CZ        46.7440   39.6700    2.5170 C.ar  324  TYR324      0.1957
    147  OH        47.5910   38.7570    1.9160 O.3   324  TYR324     -0.2866
    148  N         44.9830   46.9250   -0.0210 N.3   327  LEU327     -0.1231
    149  CA        46.4370   47.0870   -0.2180 C.3   327  LEU327      0.1693
    150  C         46.9100   46.4150   -1.4760 C.2   327  LEU327      0.2592
    151  O         47.7950   46.8910   -2.1890 O.2   327  LEU327     -0.2718
    152  CB        47.0450   46.4570    1.0460 C.3   327  LEU327      0.0284
    153  CG        48.2560   46.9680    1.7740 C.3   327  LEU327      0.0019
    154  CD1       48.2240   48.4660    2.0160 C.3   327  LEU327      0.0001
    155  CD2       48.3850   46.2110    3.1020 C.3   327  LEU327      0.0001
    156  N         46.2650   45.3150   -1.8790 N.am  328  THR328     -0.1953
    157  CA        46.6480   44.5440   -3.0440 C.3   328  THR328      0.1897
    158  C         46.2440   45.2590   -4.3190 C.2   328  THR328      0.2313
    159  O         46.7990   45.0390   -5.3930 O.2   328  THR328     -0.2863
    160  CB        46.0850   43.1140   -3.0100 C.3   328  THR328      0.1794
    161  OG1       44.7270   43.1390   -3.4650 O.3   328  THR328     -0.2208
    162  CG2       46.1820   42.5270   -1.6150 C.3   328  THR328      0.0378
    163  N         47.9630   49.5420   -3.1630 N.3   331  GLY331     -0.1210
    164  CA        49.2780   49.6210   -2.5360 C.3   331  GLY331      0.1940
    165  C         49.2720   50.4360   -1.2700 C.2   331  GLY331      0.2453
    166  O         48.2740   50.9130   -0.7250 O.2   331  GLY331     -0.2732
    167  N         50.4830   50.7280   -0.7690 N.am  332  PRO332     -0.2728
    168  CA        50.7280   51.4610    0.4520 C.3   332  PRO332      0.1401
    169  C         50.0570   52.7820    0.6780 C.2   332  PRO332      0.2269
    170  O         49.6560   53.1170    1.8100 O.2   332  PRO332     -0.2865
    171  CB        52.2590   51.6530    0.4800 C.3   332  PRO332      0.0296
    172  CG        52.7740   50.5080   -0.3110 C.3   332  PRO332      0.0237
    173  CD        51.7650   50.2820   -1.4050 C.3   332  PRO332      0.0939
@<TRIPOS>BOND
     1    32    31    2
     2    31    30    1
     3    21    22    1
     4    30    29    1
     5    30    33    1
     6    24    23    2
     7    29    23   am
     8    33    34    1
     9    23    22    1
    10    22    25    1
    11    16    15    2
    12    15    14    1
    13   109   108    2
    14   116   114    1
    15    36    35    2
    16    13    14    1
    17    34    35    1
    18    25    26    1
    19    35    37   am
    20   108   107    1
    21    14    17    1
    22   114   115    1
    23   114   113    2
    24   110   107    1
    25   110   111    1
    26     4     3    2
    27   112   113    1
    28   112   111    1
    29    44    43    1
    30    44    38    1
    31    26    27    1
    32    26    28    1
    33     3     2    1
    34   107   106    1
    35    17    18    1
    36     1     2    1
    37    43    42    1
    38    38    39    1
    39     2     5    1
    40    18    19    1
    41    39    42    1
    42    39    40    1
    43   102   101    2
    44     5     6    1
    45    19    20    1
    46    49    46    1
    47   159   158    2
    48   101   100    1
    49    45    46    1
    50     6     8   ar
    51     6     7   ar
    52    40    41    2
    53    46    47    1
    54     8    10   ar
    55     7     9   ar
    56   158   157    1
    57    10    11   ar
    58     9    11   ar
    59    99   100    1
    60    11    12    1
    61   100   103    1
    62   118   117    1
    63   118   119    1
    64   118   121    1
    65   123   121    1
    66   161   160    1
    67   103   104    1
    68   103   105    1
    69    47    48    2
    70    47    50   am
    71   119   120    2
    72   163   164    1
    73   157   160    1
    74   157   156    1
    75   160   162    1
    76   121   122    1
    77    50    51    1
    78   164   165    1
    79   151   150    2
    80   156   150   am
    81   150   149    1
    82   173   167    1
    83   173   172    1
    84   165   167   am
    85   165   166    2
    86    51    54    1
    87    51    52    1
    88    60    61    1
    89    54    55    1
    90   167   168    1
    91    52    53    2
    92    64    61    1
    93   172   171    1
    94    61    62    1
    95   149   148    1
    96   149   152    1
    97   135   134    1
    98   168   171    1
    99   168   169    1
   100    55    56   ar
   101    55    57   ar
   102   169   170    2
   103   134   133   ar
   104   134   132   ar
   105   133   131   ar
   106   152   153    1
   107    56    58   ar
   108    62    63    2
   109   132   130   ar
   110    74    75    2
   111    74    73    1
   112   131   129   ar
   113   124   125    1
   114   139   138    2
   115    57    59   ar
   116    73    72    1
   117    73    76    1
   118   153   154    1
   119   153   155    1
   120   130   129   ar
   121   147   146    1
   122   125   128    1
   123   125   126    1
   124   129   128    1
   125   145   146   ar
   126   145   143   ar
   127   138   137    1
   128    58    59   ar
   129   146   144   ar
   130   143   141   ar
   131    79    77    1
   132    88    86   ar
   133    88    90   ar
   134   127   126    2
   135    65    66    1
   136    76    77    1
   137    70    69    1
   138    86    85   ar
   139   144   142   ar
   140    90    89   ar
   141    77    78    1
   142   141   142   ar
   143   141   140    1
   144   137   140    1
   145   137   136    1
   146    66    69    1
   147    66    67    1
   148    97    98    1
   149    97    96    1
   150    69    71    1
   151    96    95    1
   152    85    84    1
   153    85    87   ar
   154    89    87   ar
   155    67    68    2
   156    83    82    2
   157    84    81    1
   158    81    82    1
   159    81    80    1
   160    95    92    1
   161    94    93    2
   162    92    93    1
   163    92    91    1
