@<TRIPOS>MOLECULE
tmp/1d3qB01.pdb
 207 207 0 0 0
SMALL
GASTEIGER

@<TRIPOS>ATOM
      1  N        -12.9200  -26.8900   18.7710 N.3    43  HIS43      -0.1241
      2  CA       -13.0850  -28.2770   18.3650 C.3    43  HIS43       0.1621
      3  C        -13.8460  -28.4110   17.0470 C.2    43  HIS43       0.2264
      4  O        -13.9770  -29.5130   16.5030 O.2    43  HIS43      -0.2867
      5  CB       -13.7900  -29.0730   19.4760 C.3    43  HIS43       0.0745
      6  CG       -15.2870  -29.0270   19.3980 C.ar   43  HIS43       0.0817
      7  ND1      -16.0560  -28.3060   20.2860 N.ar   43  HIS43      -0.2268
      8  CD2      -16.1550  -29.5960   18.5280 C.ar   43  HIS43       0.1154
      9  CE1      -17.3300  -28.4330   19.9630 C.ar   43  HIS43       0.1986
     10  NE2      -17.4180  -29.2100   18.9010 N.ar   43  HIS43      -0.2212
     11  N         -9.6470  -31.0660   15.7420 N.3    47  TYR47      -0.1241
     12  CA        -9.8500  -32.1290   16.6920 C.3    47  TYR47       0.1605
     13  C         -9.2050  -33.3720   16.1260 C.2    47  TYR47       0.2264
     14  O         -9.8830  -34.2010   15.5120 O.2    47  TYR47      -0.2867
     15  CB       -11.3230  -32.4010   16.9390 C.3    47  TYR47       0.0534
     16  CG       -11.5320  -33.2540   18.1760 C.ar   47  TYR47      -0.0201
     17  CD1      -10.9660  -32.8860   19.4180 C.ar   47  TYR47      -0.0009
     18  CD2      -12.2740  -34.4360   18.1110 C.ar   47  TYR47      -0.0009
     19  CE1      -11.1440  -33.6780   20.5480 C.ar   47  TYR47       0.0417
     20  CE2      -12.4560  -35.2300   19.2370 C.ar   47  TYR47       0.0417
     21  CZ       -11.8940  -34.8470   20.4470 C.ar   47  TYR47       0.1957
     22  OH       -12.1100  -35.6400   21.5480 O.3    47  TYR47      -0.2866
     23  N        -10.6070  -36.9940   15.8430 N.3    50  TRP50      -0.1241
     24  CA       -11.5520  -37.2820   14.7570 C.3    50  TRP50       0.1605
     25  C        -11.0750  -36.8330   13.3990 C.2    50  TRP50       0.2264
     26  O        -11.8900  -36.5400   12.5260 O.2    50  TRP50      -0.2867
     27  CB       -12.8880  -36.6120   15.0310 C.3    50  TRP50       0.0550
     28  CG       -13.6380  -37.1480   16.1930 C.ar   50  TRP50       0.0003
     29  CD1      -13.4100  -38.3150   16.8480 C.ar   50  TRP50       0.0946
     30  CD2      -14.7450  -36.5280   16.8440 C.ar   50  TRP50       0.0152
     31  NE1      -14.3140  -38.4700   17.8660 N.ar   50  TRP50      -0.2442
     32  CE2      -15.1480  -37.3840   17.8930 C.ar   50  TRP50       0.0810
     33  CE3      -15.4440  -35.3360   16.6380 C.ar   50  TRP50       0.0012
     34  CZ2      -16.2130  -37.0880   18.7330 C.ar   50  TRP50       0.0191
     35  CZ3      -16.5010  -35.0350   17.4800 C.ar   50  TRP50       0.0001
     36  CH2      -16.8780  -35.9120   18.5180 C.ar   50  TRP50       0.0015
     37  N        -10.0780  -34.1430   12.2500 N.3    52  LYS52      -0.1245
     38  CA       -10.6420  -32.8710   11.8490 C.3    52  LYS52       0.1561
     39  C         -9.5810  -31.7940   11.9800 C.2    52  LYS52       0.2260
     40  O         -8.9790  -31.6200   13.0420 O.2    52  LYS52      -0.2867
     41  CB       -11.8400  -32.5560   12.7330 C.3    52  LYS52       0.0271
     42  CG       -12.4900  -31.2330   12.4710 C.3    52  LYS52       0.0035
     43  CD       -13.9770  -31.4330   12.3400 C.3    52  LYS52       0.0206
     44  CE       -14.6640  -31.3210   13.6720 C.3    52  LYS52       0.1093
     45  NZ       -15.9260  -32.1020   13.6570 N.3    52  LYS52      -0.1314
     46  N         -7.2460  -30.1130   23.5890 N.3    92  TRP92      -0.1241
     47  CA        -8.0550  -31.0970   22.9110 C.3    92  TRP92       0.1605
     48  C         -7.7100  -32.5270   23.3150 C.2    92  TRP92       0.2264
     49  O         -8.5140  -33.4340   23.1180 O.2    92  TRP92      -0.2867
     50  CB        -7.9250  -30.9230   21.4100 C.3    92  TRP92       0.0550
     51  CG        -6.5400  -30.9230   20.9310 C.ar   92  TRP92       0.0003
     52  CD1       -5.7490  -29.8390   20.7140 C.ar   92  TRP92       0.0946
     53  CD2       -5.7760  -32.0650   20.5680 C.ar   92  TRP92       0.0152
     54  NE1       -4.5250  -30.2370   20.2370 N.ar   92  TRP92      -0.2442
     55  CE2       -4.5150  -31.6030   20.1370 C.ar   92  TRP92       0.0810
     56  CE3       -6.0320  -33.4420   20.5690 C.ar   92  TRP92       0.0012
     57  CZ2       -3.5070  -32.4690   19.7100 C.ar   92  TRP92       0.0191
     58  CZ3       -5.0310  -34.3040   20.1420 C.ar   92  TRP92       0.0001
     59  CH2       -3.7840  -33.8130   19.7180 C.ar   92  TRP92       0.0015
     60  N         -7.2800  -33.6130   26.3930 N.3    94  GLU94      -0.1231
     61  CA        -7.9470  -34.0430   27.5910 C.3    94  GLU94       0.1699
     62  C         -9.4140  -33.6680   27.7510 C.2    94  GLU94       0.2592
     63  O        -10.2880  -34.5180   27.5720 O.2    94  GLU94      -0.2718
     64  CB        -7.1750  -33.5810   28.8170 C.3    94  GLU94       0.0402
     65  CG        -7.6760  -34.2490   30.0780 C.3    94  GLU94       0.1161
     66  CD        -7.3530  -33.4570   31.3220 C.2    94  GLU94       0.3649
     67  OE1       -6.4070  -32.6280   31.2630 O.co2  94  GLU94      -0.2457
     68  OE2       -8.0450  -33.6680   32.3520 O.co2  94  GLU94      -0.2457
     69  N         -9.6990  -32.4070   28.0650 N.am   95  ASN95      -0.1960
     70  CA       -11.0830  -32.0100   28.3100 C.3    95  ASN95       0.1819
     71  C        -11.6230  -30.8400   27.4930 C.2    95  ASN95       0.2621
     72  O        -12.6150  -30.2270   27.8650 O.2    95  ASN95      -0.2715
     73  CB       -11.2390  -31.7070   29.8060 C.3    95  ASN95       0.1195
     74  CG       -10.1010  -30.8500   30.3560 C.2    95  ASN95       0.2630
     75  OD1       -9.1080  -30.5960   29.6720 O.2    95  ASN95      -0.2716
     76  ND2      -10.2500  -30.3980   31.5920 N.am   95  ASN95      -0.0877
     77  N        -10.9870  -30.5410   26.3730 N.am   96  LEU96      -0.1977
     78  CA       -11.4180  -29.4290   25.5360 C.3    96  LEU96       0.1596
     79  C        -11.3230  -28.1010   26.2810 C.2    96  LEU96       0.2287
     80  O        -12.0280  -27.1570   25.9490 O.2    96  LEU96      -0.2864
     81  CB       -12.8560  -29.6320   25.0300 C.3    96  LEU96       0.0297
     82  CG       -13.0470  -30.5780   23.8410 C.3    96  LEU96       0.0022
     83  CD1      -14.3480  -30.2510   23.1250 C.3    96  LEU96       0.0001
     84  CD2      -11.8860  -30.4720   22.8870 C.3    96  LEU96       0.0001
     85  N        -14.9230  -36.7180   33.3130 N.3   172  ILE172     -0.1245
     86  CA       -14.0240  -35.7300   32.7590 C.3   172  ILE172      0.1561
     87  C        -13.7390  -34.6730   33.8130 C.2   172  ILE172      0.2260
     88  O        -14.6200  -34.2960   34.5860 O.2   172  ILE172     -0.2867
     89  CB       -14.6530  -35.0570   31.5340 C.3   172  ILE172      0.0252
     90  CG1      -15.0080  -36.1110   30.4770 C.3   172  ILE172      0.0019
     91  CG2      -13.7070  -34.0010   30.9890 C.3   172  ILE172      0.0019
     92  CD1      -13.8460  -36.9990   30.0580 C.3   172  ILE172      0.0001
     93  N        -31.4860  -29.8610   25.0870 N.3   192  ASP192     -0.1225
     94  CA       -30.0380  -29.9250   25.0350 C.3   192  ASP192      0.1805
     95  C        -29.5880  -29.6600   23.6190 C.2   192  ASP192      0.2598
     96  O        -30.3950  -29.6910   22.6880 O.2   192  ASP192     -0.2718
     97  CB       -29.5510  -31.3150   25.4540 C.3   192  ASP192      0.1424
     98  CG       -28.0720  -31.3430   25.7790 C.2   192  ASP192      0.3668
     99  OD1      -27.4740  -30.2570   25.7820 O.co2 192  ASP192     -0.2456
    100  OD2      -27.5210  -32.4430   26.0190 O.co2 192  ASP192     -0.2456
    101  N        -28.2960  -29.3860   23.4700 N.am  193  ALA193     -0.1966
    102  CA       -27.7330  -29.1520   22.1640 C.3   193  ALA193      0.1728
    103  C        -27.5560  -30.5680   21.6230 C.2   193  ALA193      0.2616
    104  O        -28.0770  -31.5290   22.1860 O.2   193  ALA193     -0.2715
    105  CB       -26.3990  -28.4460   22.2830 C.3   193  ALA193      0.0334
    106  N        -26.8030  -30.7020   20.5460 N.am  194  CYS194     -0.1954
    107  CA       -26.5630  -31.9960   19.9290 C.3   194  CYS194      0.1843
    108  C        -25.7310  -31.7600   18.6810 C.2   194  CYS194      0.2625
    109  O        -25.5570  -30.6150   18.2380 O.2   194  CYS194     -0.2714
    110  CB       -27.8890  -32.6590   19.5500 C.3   194  CYS194      0.0997
    111  SG       -27.9340  -34.4850   19.5220 S.3   194  CYS194     -0.0797
    112  N        -25.2270  -32.8510   18.1160 N.am  195  GLU195     -0.1963
    113  CA       -24.4080  -32.7950   16.9210 C.3   195  GLU195      0.1733
    114  C        -24.8510  -31.6940   15.9670 C.2   195  GLU195      0.2616
    115  O        -26.0400  -31.5610   15.6590 O.2   195  GLU195     -0.2715
    116  CB       -24.4490  -34.1370   16.1930 C.3   195  GLU195      0.0429
    117  CG       -23.2250  -34.3760   15.3400 C.3   195  GLU195      0.1163
    118  CD       -23.0640  -35.8180   14.9330 C.2   195  GLU195      0.3649
    119  OE1      -23.6540  -36.7030   15.6030 O.co2 195  GLU195     -0.2457
    120  OE2      -22.3440  -36.0530   13.9320 O.co2 195  GLU195     -0.2457
    121  N        -23.8830  -30.9030   15.5080 N.am  196  GLY196     -0.1955
    122  CA       -24.1800  -29.8260   14.5840 C.3   196  GLY196      0.1869
    123  C        -24.5820  -28.5240   15.2460 C.2   196  GLY196      0.2309
    124  O        -24.7900  -27.5300   14.5590 O.2   196  GLY196     -0.2863
    125  N        -22.9320  -27.5740   18.3500 N.3   198  SER198     -0.1217
    126  CA       -21.6920  -27.1630   18.9750 C.3   198  SER198      0.1889
    127  C        -21.1200  -25.9850   18.2110 C.2   198  SER198      0.2288
    128  O        -21.2970  -25.8700   16.9840 O.2   198  SER198     -0.2866
    129  CB       -20.6850  -28.3290   18.9990 C.3   198  SER198      0.2089
    130  OG       -20.3170  -28.7440   17.6920 O.3   198  SER198     -0.2183
    131  N        -21.3030  -23.5190   22.8900 N.3   218  VAL218     -0.1231
    132  CA       -21.5700  -24.9460   23.0390 C.3   218  VAL218      0.1692
    133  C        -20.2510  -25.6690   22.8270 C.2   218  VAL218      0.2593
    134  O        -19.6650  -25.5830   21.7610 O.2   218  VAL218     -0.2718
    135  CB       -22.5710  -25.4480   21.9870 C.3   218  VAL218      0.0266
    136  CG1      -22.8680  -26.9110   22.2140 C.3   218  VAL218      0.0020
    137  CG2      -23.8320  -24.6210   22.0380 C.3   218  VAL218      0.0020
    138  N        -19.7790  -26.3780   23.8400 N.am  219  SER219     -0.1938
    139  CA       -18.5100  -27.0800   23.7050 C.3   219  SER219      0.2055
    140  C        -18.6230  -28.5910   23.6070 C.2   219  SER219      0.2643
    141  O        -18.3670  -29.1540   22.5520 O.2   219  SER219     -0.2714
    142  CB       -17.5670  -26.7270   24.8540 C.3   219  SER219      0.2130
    143  OG       -16.3010  -27.3320   24.6560 O.3   219  SER219     -0.2179
    144  N        -19.0020  -29.2540   24.6940 N.am  220  TRP220     -0.1959
    145  CA       -19.1110  -30.7010   24.6550 C.3   220  TRP220      0.1771
    146  C        -20.1670  -31.3020   25.5740 C.2   220  TRP220      0.2620
    147  O        -20.5950  -30.6970   26.5490 O.2   220  TRP220     -0.2715
    148  CB       -17.7440  -31.3170   24.9510 C.3   220  TRP220      0.0590
    149  CG       -17.2490  -31.0280   26.3230 C.ar  220  TRP220      0.0006
    150  CD1      -16.5950  -29.9070   26.7450 C.ar  220  TRP220      0.0946
    151  CD2      -17.4030  -31.8640   27.4740 C.ar  220  TRP220      0.0152
    152  NE1      -16.3380  -29.9920   28.0920 N.ar  220  TRP220     -0.2442
    153  CE2      -16.8240  -31.1820   28.5650 C.ar  220  TRP220      0.0810
    154  CE3      -17.9780  -33.1220   27.6910 C.ar  220  TRP220      0.0012
    155  CZ2      -16.8040  -31.7180   29.8510 C.ar  220  TRP220      0.0191
    156  CZ3      -17.9560  -33.6520   28.9660 C.ar  220  TRP220      0.0001
    157  CH2      -17.3740  -32.9500   30.0310 C.ar  220  TRP220      0.0015
    158  N        -20.6050  -32.5020   25.2330 N.am  221  GLY221     -0.1940
    159  CA       -21.6030  -33.1850   26.0340 C.3   221  GLY221      0.2014
    160  C        -21.3490  -34.6640   25.8680 C.2   221  GLY221      0.2639
    161  O        -20.5270  -35.0730   25.0500 O.2   221  GLY221     -0.2714
    162  N        -22.0220  -35.4850   26.6480 N.am  222  GLU222     -0.1963
    163  CA       -21.8270  -36.9170   26.4950 C.3   222  GLU222      0.1733
    164  C        -23.1930  -37.4560   26.0980 C.2   222  GLU222      0.2617
    165  O        -23.9850  -37.8840   26.9420 O.2   222  GLU222     -0.2715
    166  CB       -21.3310  -37.5220   27.8100 C.3   222  GLU222      0.0429
    167  CG       -19.8680  -37.2050   28.1240 C.3   222  GLU222      0.1163
    168  CD       -19.5900  -37.1520   29.6250 C.2   222  GLU222      0.3649
    169  OE1      -20.4930  -36.7380   30.3900 O.co2 222  GLU222     -0.2457
    170  OE2      -18.4700  -37.5210   30.0470 O.co2 222  GLU222     -0.2457
    171  N        -23.4680  -37.4100   24.8010 N.am  223  GLY223     -0.1940
    172  CA       -24.7580  -37.8430   24.3180 C.3   223  GLY223      0.2014
    173  C        -25.5880  -36.5820   24.1920 C.2   223  GLY223      0.2639
    174  O        -25.0570  -35.4820   24.2990 O.2   223  GLY223     -0.2714
    175  N        -26.8880  -36.7310   23.9730 N.am  224  CYS224     -0.1967
    176  CA       -27.7770  -35.5820   23.8150 C.3   224  CYS224      0.1712
    177  C        -29.0250  -35.7230   24.6740 C.2   224  CYS224      0.2296
    178  O        -29.7540  -36.7250   24.5590 O.2   224  CYS224     -0.2864
    179  CB       -28.2220  -35.4490   22.3580 C.3   224  CYS224      0.0983
    180  SG       -26.9060  -35.0170   21.1890 S.3   224  CYS224     -0.0798
    181  N        -24.8830  -30.3260   29.2910 N.3   231  GLY231     -0.1210
    182  CA       -24.0500  -29.8020   28.2320 C.3   231  GLY231      0.1956
    183  C        -23.0300  -28.8370   28.7960 C.2   231  GLY231      0.2612
    184  O        -23.3320  -28.0300   29.6670 O.2   231  GLY231     -0.2717
    185  N        -21.8100  -28.9230   28.2930 N.am  232  PHE232     -0.1962
    186  CA       -20.7910  -28.0250   28.7850 C.3   232  PHE232      0.1771
    187  C        -20.5270  -26.9380   27.7590 C.2   232  PHE232      0.2619
    188  O        -20.6110  -27.1490   26.5560 O.2   232  PHE232     -0.2715
    189  CB       -19.5170  -28.8360   29.0280 C.3   232  PHE232      0.0574
    190  CG       -19.6340  -29.5880   30.3210 C.ar  232  PHE232     -0.0200
    191  CD1      -20.2050  -30.8540   30.3300 C.ar  232  PHE232     -0.0042
    192  CD2      -19.1920  -29.0100   31.5000 C.ar  232  PHE232     -0.0042
    193  CE1      -20.3350  -31.5430   31.5280 C.ar  232  PHE232     -0.0003
    194  CE2      -19.3240  -29.7080   32.6980 C.ar  232  PHE232     -0.0003
    195  CZ       -19.8950  -30.9740   32.7160 C.ar  232  PHE232     -0.0000
    196  N        -20.2690  -25.7480   28.2980 N.am  233  TYR233     -0.1974
    197  CA       -20.0910  -24.5270   27.5220 C.3   233  TYR233      0.1639
    198  C        -18.7690  -23.8330   27.8610 C.2   233  TYR233      0.2290
    199  O        -18.2880  -23.8700   28.9860 O.2   233  TYR233     -0.2864
    200  CB       -21.2640  -23.5940   27.8270 C.3   233  TYR233      0.0560
    201  CG       -22.5410  -24.2400   27.4220 C.ar  233  TYR233     -0.0198
    202  CD1      -23.1350  -25.1860   28.2540 C.ar  233  TYR233     -0.0009
    203  CD2      -23.1510  -23.9050   26.2120 C.ar  233  TYR233     -0.0009
    204  CE1      -24.3260  -25.7920   27.8810 C.ar  233  TYR233      0.0417
    205  CE2      -24.3410  -24.5120   25.8400 C.ar  233  TYR233      0.0417
    206  CZ       -24.9280  -25.4510   26.6680 C.ar  233  TYR233      0.1957
    207  OH       -26.1200  -26.0500   26.3100 O.3   233  TYR233     -0.2866
@<TRIPOS>BOND
     1    38    39    1
     2    38    37    1
     3    38    41    1
     4    39    40    2
     5    43    42    1
     6    43    44    1
     7    42    41    1
     8    26    25    2
     9    25    24    1
    10    45    44    1
    11   120   118   ar
    12   124   123    2
    13   122   123    1
    14   122   121    1
    15    24    27    1
    16    24    23    1
    17   118   117    1
    18   118   119   ar
    19    27    28    1
    20   117   116    1
    21   121   114   am
    22    14    13    2
    23   115   114    2
    24    11    12    1
    25   114   113    1
    26    13    12    1
    27    28    30   ar
    28    28    29   ar
    29   116   113    1
    30     4     3    2
    31    33    30   ar
    32    33    35   ar
    33    12    15    1
    34    30    32   ar
    35    29    31   ar
    36   113   112    1
    37    15    16    1
    38   128   127    2
    39     3     2    1
    40    35    36   ar
    41   130   129    1
    42    31    32   ar
    43    32    34   ar
    44    18    16   ar
    45    18    20   ar
    46   112   108   am
    47    16    17   ar
    48   127   126    1
    49   109   108    2
    50   125   126    1
    51     2     1    1
    52     2     5    1
    53    36    34   ar
    54     8    10   ar
    55     8     6   ar
    56   108   107    1
    57    10     9   ar
    58   126   129    1
    59    20    21   ar
    60     6     5    1
    61     6     7   ar
    62    17    19   ar
    63   111   110    1
    64   111   180    1
    65   110   107    1
    66    57    59   ar
    67    57    55   ar
    68    59    58   ar
    69   107   106    1
    70     9     7   ar
    71    55    54   ar
    72    55    53   ar
    73    58    56   ar
    74    54    52   ar
    75    21    19   ar
    76    21    22    1
    77   106   103   am
    78    53    56   ar
    79    53    51   ar
    80    52    51   ar
    81    51    50    1
    82   180   179    1
    83    50    47    1
    84   103   102    1
    85   103   104    2
    86   134   133    2
    87   135   137    1
    88   135   136    1
    89   135   132    1
    90   102   105    1
    91   102   101    1
    92   179   176    1
    93   141   140    2
    94    96    95    2
    95   133   132    1
    96   133   138   am
    97    84    82    1
    98   131   132    1
    99    47    48    1
   100    47    46    1
   101    49    48    2
   102    83    82    1
   103   101    95   am
   104   140   139    1
   105   140   144   am
   106    95    94    1
   107   139   138    1
   108   139   142    1
   109   176   175    1
   110   176   177    1
   111    82    81    1
   112   175   173   am
   113   173   174    2
   114   173   172    1
   115   172   171    1
   116   178   177    2
   117   145   144    1
   118   145   148    1
   119   145   146    1
   120   143   142    1
   121   171   164   am
   122   148   149    1
   123    81    78    1
   124    94    93    1
   125    94    97    1
   126   161   160    2
   127   158   146   am
   128   158   159    1
   129    97    98    1
   130    78    79    1
   131    78    77    1
   132   146   147    2
   133    98    99   ar
   134    98   100   ar
   135   205   203   ar
   136   205   206   ar
   137   160   159    1
   138   160   162   am
   139    80    79    2
   140   164   163    1
   141   164   165    2
   142   203   201   ar
   143   207   206    1
   144   149   150   ar
   145   149   151   ar
   146    77    71   am
   147    60    61    1
   148   163   162    1
   149   163   166    1
   150   188   187    2
   151   206   204   ar
   152   150   152   ar
   153   201   200    1
   154   201   202   ar
   155   151   154   ar
   156   151   153   ar
   157    71    72    2
   158    71    70    1
   159   197   200    1
   160   197   198    1
   161   197   196    1
   162    63    62    2
   163    61    62    1
   164    61    64    1
   165   154   156   ar
   166    62    69   am
   167   187   196   am
   168   187   186    1
   169   166   167    1
   170   198   199    2
   171   204   202   ar
   172    69    70    1
   173   152   153   ar
   174   167   168    1
   175   182   183    1
   176   182   181    1
   177   185   186    1
   178   185   183   am
   179    70    73    1
   180   153   155   ar
   181   186   189    1
   182   183   184    2
   183    64    65    1
   184   156   157   ar
   185   189   190    1
   186   168   170   ar
   187   168   169   ar
   188    75    74    2
   189    73    74    1
   190   155   157   ar
   191    92    90    1
   192    65    66    1
   193   190   191   ar
   194   190   192   ar
   195   191   193   ar
   196    74    76   am
   197    90    89    1
   198    91    89    1
   199    67    66   ar
   200    66    68   ar
   201   192   194   ar
   202   193   195   ar
   203    89    86    1
   204   194   195   ar
   205    86    85    1
   206    86    87    1
   207    87    88    2
