@<TRIPOS>MOLECULE
tmp/1d4cD03.pdb
 143 139 0 0 0
SMALL
GASTEIGER

@<TRIPOS>ATOM
      1  N         80.6200   44.0540   42.0110 N.3     5  LEU5       -0.1245
      2  CA        81.5420   44.8660   42.7780 C.3     5  LEU5        0.1561
      3  C         82.6410   45.5010   41.9280 C.2     5  LEU5        0.2260
      4  O         82.5950   46.7250   41.7890 O.2     5  LEU5       -0.2867
      5  CB        82.1180   44.1150   43.9680 C.3     5  LEU5        0.0270
      6  CG        81.7890   44.5390   45.3920 C.3     5  LEU5        0.0019
      7  CD1       83.0490   44.5450   46.2610 C.3     5  LEU5        0.0001
      8  CD2       81.1210   45.8990   45.5170 C.3     5  LEU5        0.0001
      9  N         81.3180   48.2780   39.4750 N.3     8  PHE8       -0.1227
     10  CA        80.9870   49.4830   40.2220 C.3     8  PHE8        0.1736
     11  C         82.1910   50.2900   40.6830 C.2     8  PHE8        0.2595
     12  O         82.1310   51.5040   40.8770 O.2     8  PHE8       -0.2718
     13  CB        80.1260   49.0440   41.3950 C.3     8  PHE8        0.0547
     14  CG        79.7080   50.1300   42.3380 C.ar    8  PHE8       -0.0202
     15  CD1       78.5160   50.8150   42.1810 C.ar    8  PHE8       -0.0042
     16  CD2       80.5140   50.4510   43.4300 C.ar    8  PHE8       -0.0042
     17  CE1       78.1460   51.7980   43.0790 C.ar    8  PHE8       -0.0003
     18  CE2       80.1520   51.4410   44.3170 C.ar    8  PHE8       -0.0003
     19  CZ        78.9620   52.1210   44.1420 C.ar    8  PHE8       -0.0000
     20  N         83.3520   49.7250   40.9050 N.am    9  HIS9       -0.1975
     21  CA        84.5790   50.3830   41.2620 C.3     9  HIS9        0.1656
     22  C         85.3690   50.7140   39.9990 C.2     9  HIS9        0.2291
     23  O         86.3460   51.4610   39.9870 O.2     9  HIS9       -0.2864
     24  CB        85.4010   49.4020   42.1230 C.3     9  HIS9        0.0771
     25  CG        84.8900   49.3650   43.5320 C.ar    9  HIS9        0.0820
     26  ND1       83.6490   48.8870   43.8910 N.ar    9  HIS9       -0.2267
     27  CD2       85.4420   49.7850   44.6910 C.ar    9  HIS9        0.1154
     28  CE1       83.4550   48.9930   45.1850 C.ar    9  HIS9        0.1986
     29  NE2       84.5360   49.5310   45.6880 N.ar    9  HIS9       -0.2212
     30  N         85.5490   54.4060   38.7280 N.3    12  MET12      -0.1245
     31  CA        86.1980   55.1960   39.7300 C.3    12  MET12       0.1570
     32  C         87.7340   55.1130   39.6570 C.2    12  MET12       0.2261
     33  O         88.3450   56.1340   39.9870 O.2    12  MET12      -0.2867
     34  CB        85.8980   54.8460   41.1790 C.3    12  MET12       0.0387
     35  CG        84.5890   55.0900   41.8630 C.3    12  MET12       0.0595
     36  SD        84.5450   54.4440   43.5760 S.3    12  MET12      -0.1393
     37  CE        82.9870   55.1970   44.0810 C.3    12  MET12       0.0692
     38  N         93.3500   49.8610   41.7160 N.3    17  SER17      -0.1202
     39  CA        92.4470   49.9810   42.8070 C.3    17  SER17       0.2020
     40  C         92.4490   48.8230   43.7900 C.2    17  SER17       0.2619
     41  O         92.6190   49.0220   45.0060 O.2    17  SER17      -0.2717
     42  CB        91.0440   50.1190   42.1750 C.3    17  SER17       0.2103
     43  OG        90.7920   51.5160   42.1020 O.3    17  SER17      -0.2182
     44  N         92.1770   47.6180   43.2650 N.am   18  CYS18      -0.1969
     45  CA        92.2420   46.4460   44.1340 C.3    18  CYS18       0.1712
     46  C         93.4540   45.5870   43.7700 C.2    18  CYS18       0.2296
     47  O         94.1690   45.1000   44.6550 O.2    18  CYS18      -0.2864
     48  CB        90.9540   45.6660   44.1740 C.3    18  CYS18       0.0983
     49  SG        89.4600   46.6790   44.3250 S.3    18  CYS18      -0.0798
     50  N         94.3670   42.4580   47.4170 N.3    34  GLU34      -0.1245
     51  CA        92.9850   42.8480   47.1770 C.3    34  GLU34       0.1567
     52  C         92.2640   43.0850   48.4940 C.2    34  GLU34       0.2260
     53  O         91.2600   43.7800   48.4970 O.2    34  GLU34      -0.2867
     54  CB        92.2150   41.8250   46.3340 C.3    34  GLU34       0.0388
     55  CG        92.6340   41.7680   44.8910 C.3    34  GLU34       0.1160
     56  CD        93.9900   41.1490   44.6100 C.2    34  GLU34       0.3649
     57  OE1       94.6700   40.6250   45.5370 O.co2  34  GLU34      -0.2457
     58  OE2       94.3260   41.2150   43.3940 O.co2  34  GLU34      -0.2457
     59  N         93.5240   46.6860   50.1990 N.3    37  GLN37      -0.1231
     60  CA        92.8580   47.7280   49.4510 C.3    37  GLN37       0.1698
     61  C         91.4460   47.9550   49.9520 C.2    37  GLN37       0.2592
     62  O         90.9470   49.1020   50.0160 O.2    37  GLN37      -0.2718
     63  CB        92.8970   47.3520   47.9510 C.3    37  GLN37       0.0381
     64  CG        94.3020   47.6310   47.4040 C.3    37  GLN37       0.0905
     65  CD        94.7460   49.0940   47.5830 C.2    37  GLN37       0.2608
     66  OE1       94.1160   49.9370   46.9200 O.2    37  GLN37      -0.2717
     67  NE2       95.7490   49.3300   48.4210 N.am   37  GLN37      -0.0878
     68  N         90.7030   46.9160   50.3130 N.am   38  CYS38      -0.1970
     69  CA        89.3100   47.0830   50.7330 C.3    38  CYS38       0.1712
     70  C         89.3820   47.8930   52.0240 C.2    38  CYS38       0.2296
     71  O         88.8500   48.9600   52.2210 O.2    38  CYS38      -0.2864
     72  CB        88.6210   45.7600   51.0120 C.3    38  CYS38       0.0983
     73  SG        88.6220   44.5590   49.6690 S.3    38  CYS38      -0.0798
     74  N         90.3080   51.7650   51.7870 N.3    41  CYS41      -0.1221
     75  CA        89.2610   52.7580   51.7620 C.3    41  CYS41       0.1808
     76  C         88.1130   52.4560   52.6740 C.2    41  CYS41       0.2601
     77  O         87.2690   53.3730   52.6170 O.2    41  CYS41      -0.2717
     78  CB        88.6280   52.7930   50.3770 C.3    41  CYS41       0.0970
     79  SG        89.7860   53.2970   49.1170 S.3    41  CYS41      -0.0800
     80  N         87.8970   51.3200   53.3120 N.am   42  HIS42      -0.1975
     81  CA        86.6080   51.1590   54.0060 C.3    42  HIS42       0.1656
     82  C         86.6610   50.7870   55.4730 C.2    42  HIS42       0.2291
     83  O         85.6160   50.5710   56.0860 O.2    42  HIS42      -0.2864
     84  CB        85.7790   50.0590   53.3540 C.3    42  HIS42       0.0771
     85  CG        85.1980   50.2830   52.0030 C.ar   42  HIS42       0.0820
     86  ND1       84.0880   51.0880   51.8200 N.ar   42  HIS42      -0.2267
     87  CD2       85.5100   49.7970   50.7750 C.ar   42  HIS42       0.1154
     88  CE1       83.7520   51.0720   50.5570 C.ar   42  HIS42       0.1986
     89  NE2       84.5970   50.3140   49.8960 N.ar   42  HIS42      -0.2212
     90  N         87.5310   39.8690   53.1270 N.3    70  CYS70      -0.1221
     91  CA        86.3080   40.5310   52.7020 C.3    70  CYS70       0.1808
     92  C         85.8610   39.8180   51.4350 C.2    70  CYS70       0.2601
     93  O         84.6810   39.5600   51.1940 O.2    70  CYS70      -0.2717
     94  CB        86.4740   42.0040   52.3700 C.3    70  CYS70       0.0970
     95  SG        87.5910   42.9510   53.4310 S.3    70  CYS70      -0.0800
     96  N         86.9230   39.5000   50.6630 N.am   71  THR71      -0.1953
     97  CA        86.6870   38.8840   49.3490 C.3    71  THR71       0.1897
     98  C         85.8590   37.6360   49.5070 C.2    71  THR71       0.2313
     99  O         84.9950   37.2990   48.6890 O.2    71  THR71      -0.2863
    100  CB        88.0070   38.7130   48.5940 C.3    71  THR71       0.1794
    101  OG1       89.0850   38.3430   49.4370 O.3    71  THR71      -0.2208
    102  CG2       88.3590   40.0740   47.9870 C.3    71  THR71       0.0378
    103  N         82.2930   39.4640   49.3590 N.3    74  HIS74      -0.1226
    104  CA        82.1680   40.5310   48.3690 C.3    74  HIS74       0.1752
    105  C         83.1470   40.0980   47.2640 C.2    74  HIS74       0.2596
    106  O         84.3710   40.1550   47.4770 O.2    74  HIS74      -0.2718
    107  CB        82.4890   41.9070   48.9030 C.3    74  HIS74       0.0759
    108  CG        81.7350   42.4900   50.0310 C.ar   74  HIS74       0.0818
    109  ND1       80.3660   42.6690   49.9700 N.ar   74  HIS74      -0.2268
    110  CD2       82.1010   42.9990   51.2250 C.ar   74  HIS74       0.1154
    111  CE1       79.9390   43.2390   51.0820 C.ar   74  HIS74       0.1986
    112  NE2       80.9780   43.4540   51.8630 N.ar   74  HIS74      -0.2212
    113  N         82.5570   39.5810   46.2100 N.am   75  LYS75      -0.1966
    114  CA        83.3880   39.0400   45.1200 C.3    75  LYS75       0.1728
    115  C         83.5080   40.1420   44.0860 C.2    75  LYS75       0.2616
    116  O         82.5410   40.9020   44.0600 O.2    75  LYS75      -0.2715
    117  CB        82.7990   37.7800   44.5160 C.3    75  LYS75       0.0311
    118  CG        82.3750   36.6920   45.4680 C.3    75  LYS75       0.0038
    119  CD        83.3950   35.6640   45.8580 C.3    75  LYS75       0.0206
    120  CE        84.2720   35.1490   44.7360 C.3    75  LYS75       0.1093
    121  NZ        85.7140   35.5770   44.8480 N.3    75  LYS75      -0.1314
    122  N         84.6020   40.2820   43.3800 N.am   76  GLY76      -0.1955
    123  CA        84.7370   41.4290   42.4800 C.3    76  GLY76       0.1869
    124  C         83.9740   41.2550   41.1860 C.2    76  GLY76       0.2309
    125  O         82.9420   41.8610   40.9260 O.2    76  GLY76      -0.2863
    126  N         74.7640   44.2410   48.5020 N.3    95  PRO95      -0.2102
    127  CA        75.0010   44.9000   47.2360 C.3    95  PRO95       0.1504
    128  C         75.6040   43.8860   46.2790 C.2    95  PRO95       0.2575
    129  O         76.3830   43.0360   46.6670 O.2    95  PRO95      -0.2718
    130  CB        75.9910   45.9930   47.5560 C.3    95  PRO95       0.0282
    131  CG        76.5450   45.7300   48.9100 C.3    95  PRO95       0.0208
    132  CD        75.6310   44.7670   49.6050 C.3    95  PRO95       0.0893
    133  N         75.2930   43.9210   45.0040 N.am   96  PHE96      -0.1977
    134  CA        75.7250   43.1020   43.9070 C.3    96  PHE96       0.1639
    135  C         75.6000   41.6110   44.2120 C.2    96  PHE96       0.2290
    136  O         76.4410   40.8180   43.8090 O.2    96  PHE96      -0.2864
    137  CB        77.1670   43.3900   43.4570 C.3    96  PHE96       0.0560
    138  CG        77.3520   44.8760   43.2940 C.ar   96  PHE96      -0.0200
    139  CD1       77.9020   45.6430   44.3040 C.ar   96  PHE96      -0.0042
    140  CD2       76.9120   45.5010   42.1470 C.ar   96  PHE96      -0.0042
    141  CE1       78.0250   47.0010   44.1430 C.ar   96  PHE96      -0.0003
    142  CE2       77.0440   46.8520   41.9590 C.ar   96  PHE96      -0.0003
    143  CZ        77.5960   47.6010   42.9760 C.ar   96  PHE96      -0.0000
@<TRIPOS>BOND
     1    30    31    1
     2     9    10    1
     3    32    31    1
     4    32    33    2
     5    31    34    1
     6    23    22    2
     7    22    21    1
     8    10    11    1
     9    10    13    1
    10    11    12    2
    11    11    20   am
    12    20    21    1
    13   125   124    2
    14    34    35    1
    15   124   123    1
    16    21    24    1
    17    13    14    1
    18    38    39    1
    19     4     3    2
    20    35    36    1
    21     3     2    1
    22   142   140   ar
    23   142   143   ar
    24     1     2    1
    25    43    42    1
    26    24    25    1
    27   140   138   ar
    28    42    39    1
    29    15    14   ar
    30    15    17   ar
    31    14    16   ar
    32   123   122    1
    33     2     5    1
    34    39    40    1
    35   143   141   ar
    36    17    19   ar
    37    44    40   am
    38    44    45    1
    39   138   137    1
    40   138   139   ar
    41   122   115   am
    42    58    56   ar
    43    16    18   ar
    44   137   134    1
    45    25    26   ar
    46    25    27   ar
    47    36    37    1
    48    46    45    1
    49    46    47    2
    50    40    41    2
    51   136   135    2
    52    26    28   ar
    53   134   135    1
    54   134   133    1
    55     5     6    1
    56   116   115    2
    57   115   114    1
    58    45    48    1
    59    19    18   ar
    60   141   139   ar
    61    48    49    1
    62   117   114    1
    63   117   118    1
    64    56    55    1
    65    56    57   ar
    66    27    29   ar
    67   120   121    1
    68   120   119    1
    69    55    54    1
    70   133   128   am
    71   114   113    1
    72    28    29   ar
    73     6     8    1
    74     6     7    1
    75   118   119    1
    76   113   105   am
    77   128   129    2
    78   128   127    1
    79    54    51    1
    80    66    65    2
    81    51    50    1
    82    51    52    1
    83   127   130    1
    84   127   126    1
    85   105   106    2
    86   105   104    1
    87    64    65    1
    88    64    63    1
    89   130   131    1
    90    65    67   am
    91    63    60    1
    92   102   100    1
    93   104   107    1
    94   104   103    1
    95    52    53    2
    96   126   132    1
    97   100    97    1
    98   100   101    1
    99    99    98    2
   100   107   108    1
   101   131   132    1
   102    79    78    1
   103    97    98    1
   104    97    96    1
   105    60    61    1
   106    60    59    1
   107    73    72    1
   108    89    88   ar
   109    89    87   ar
   110    61    62    2
   111    61    68   am
   112   109   108   ar
   113   109   111   ar
   114   108   110   ar
   115    68    69    1
   116    78    75    1
   117    88    86   ar
   118    96    92   am
   119    69    72    1
   120    69    70    1
   121    87    85   ar
   122   111   112   ar
   123    93    92    2
   124   110   112   ar
   125    92    91    1
   126    75    74    1
   127    75    76    1
   128    86    85   ar
   129    85    84    1
   130    70    71    2
   131    94    91    1
   132    94    95    1
   133    77    76    2
   134    76    80   am
   135    91    90    1
   136    80    81    1
   137    84    81    1
   138    81    82    1
   139    82    83    2
