@<TRIPOS>MOLECULE
tmp/1d4cD02.pdb
 176 170 0 0 0
SMALL
GASTEIGER

@<TRIPOS>ATOM
      1  N         80.6200   44.0540   42.0110 N.3     5  LEU5       -0.1231
      2  CA        81.5420   44.8660   42.7780 C.3     5  LEU5        0.1693
      3  C         82.6410   45.5010   41.9280 C.2     5  LEU5        0.2591
      4  O         82.5950   46.7250   41.7890 O.2     5  LEU5       -0.2718
      5  CB        82.1180   44.1150   43.9680 C.3     5  LEU5        0.0284
      6  CG        81.7890   44.5390   45.3920 C.3     5  LEU5        0.0019
      7  CD1       83.0490   44.5450   46.2610 C.3     5  LEU5        0.0001
      8  CD2       81.1210   45.8990   45.5170 C.3     5  LEU5        0.0001
      9  N         83.5390   44.7670   41.3060 N.am    6  ALA6       -0.1980
     10  CA        84.5580   45.3650   40.4650 C.3     6  ALA6        0.1597
     11  C         83.9730   46.2960   39.4150 C.2     6  ALA6        0.2287
     12  O         84.5550   47.3820   39.2600 O.2     6  ALA6       -0.2864
     13  CB        85.4850   44.3310   39.8400 C.3     6  ALA6        0.0319
     14  N         83.3520   49.7250   40.9050 N.3     9  HIS9       -0.1226
     15  CA        84.5790   50.3830   41.2620 C.3     9  HIS9        0.1752
     16  C         85.3690   50.7140   39.9990 C.2     9  HIS9        0.2596
     17  O         86.3460   51.4610   39.9870 O.2     9  HIS9       -0.2718
     18  CB        85.4010   49.4020   42.1230 C.3     9  HIS9        0.0759
     19  CG        84.8900   49.3650   43.5320 C.ar    9  HIS9        0.0818
     20  ND1       83.6490   48.8870   43.8910 N.ar    9  HIS9       -0.2268
     21  CD2       85.4420   49.7850   44.6910 C.ar    9  HIS9        0.1154
     22  CE1       83.4550   48.9930   45.1850 C.ar    9  HIS9        0.1986
     23  NE2       84.5360   49.5310   45.6880 N.ar    9  HIS9       -0.2212
     24  N         84.9440   50.0650   38.9040 N.am   10  GLY10      -0.1957
     25  CA        85.6210   50.2010   37.6120 C.3    10  GLY10       0.1869
     26  C         85.6390   51.6830   37.2380 C.2    10  GLY10       0.2309
     27  O         86.6120   52.3540   36.9590 O.2    10  GLY10      -0.2863
     28  N         89.6800   51.9100   38.0450 N.3    14  GLY14      -0.1210
     29  CA        90.0810   50.8550   37.1560 C.3    14  GLY14       0.1956
     30  C         90.4210   49.4700   37.6590 C.2    14  GLY14       0.2612
     31  O         89.5270   48.6160   37.7410 O.2    14  GLY14      -0.2717
     32  N         91.7230   49.2060   37.8480 N.am   15  CYS15      -0.1970
     33  CA        92.1820   47.8710   38.1860 C.3    15  CYS15       0.1712
     34  C         93.2790   47.9500   39.2260 C.2    15  CYS15       0.2296
     35  O         93.3080   47.0570   40.0630 O.2    15  CYS15      -0.2864
     36  CB        92.7860   47.1130   37.0110 C.3    15  CYS15       0.0983
     37  SG        91.8410   46.9090   35.5000 S.3    15  CYS15      -0.0798
     38  N         93.3500   49.8610   41.7160 N.3    17  SER17      -0.1202
     39  CA        92.4470   49.9810   42.8070 C.3    17  SER17       0.2020
     40  C         92.4490   48.8230   43.7900 C.2    17  SER17       0.2619
     41  O         92.6190   49.0220   45.0060 O.2    17  SER17      -0.2717
     42  CB        91.0440   50.1190   42.1750 C.3    17  SER17       0.2103
     43  OG        90.7920   51.5160   42.1020 O.3    17  SER17      -0.2182
     44  N         92.1770   47.6180   43.2650 N.am   18  CYS18      -0.1955
     45  CA        92.2420   46.4460   44.1340 C.3    18  CYS18       0.1843
     46  C         93.4540   45.5870   43.7700 C.2    18  CYS18       0.2625
     47  O         94.1690   45.1000   44.6550 O.2    18  CYS18      -0.2714
     48  CB        90.9540   45.6660   44.1740 C.3    18  CYS18       0.0997
     49  SG        89.4600   46.6790   44.3250 S.3    18  CYS18      -0.0797
     50  N         93.7560   45.5060   42.4780 N.am   19  HIS19      -0.1973
     51  CA        94.8870   44.7010   42.0440 C.3    19  HIS19       0.1656
     52  C         96.2320   45.3830   42.0560 C.2    19  HIS19       0.2291
     53  O         96.3740   46.5350   41.6730 O.2    19  HIS19      -0.2864
     54  CB        94.6410   44.1540   40.6280 C.3    19  HIS19       0.0771
     55  CG        93.4410   43.2490   40.6660 C.ar   19  HIS19       0.0820
     56  ND1       93.4690   42.0220   41.3050 N.ar   19  HIS19      -0.2267
     57  CD2       92.1940   43.4290   40.1920 C.ar   19  HIS19       0.1154
     58  CE1       92.2800   41.4800   41.1910 C.ar   19  HIS19       0.1986
     59  NE2       91.4970   42.3100   40.5480 N.ar   19  HIS19      -0.2212
     60  N         96.8520   45.9770   34.9170 N.3    23  LYS23      -0.1231
     61  CA        96.3370   44.9900   33.9900 C.3    23  LYS23       0.1693
     62  C         95.2350   44.2790   34.7900 C.2    23  LYS23       0.2593
     63  O         94.0680   44.3310   34.4290 O.2    23  LYS23      -0.2718
     64  CB        97.4140   43.9840   33.6040 C.3    23  LYS23       0.0285
     65  CG        98.6210   44.5850   32.9180 C.3    23  LYS23       0.0035
     66  CD        98.2180   45.2830   31.6350 C.3    23  LYS23       0.0206
     67  CE        99.4270   45.5470   30.7550 C.3    23  LYS23       0.1093
     68  NZ       100.4930   46.2210   31.5470 N.3    23  LYS23      -0.1314
     69  N         95.6220   43.7640   35.9610 N.am   24  GLY24      -0.1942
     70  CA        94.6640   43.0840   36.8310 C.3    24  GLY24       0.2014
     71  C         95.1250   41.6380   37.0330 C.2    24  GLY24       0.2639
     72  O         96.0980   41.2040   36.4110 O.2    24  GLY24      -0.2714
     73  N         94.3870   40.9120   37.8650 N.am   25  GLY25      -0.1939
     74  CA        94.7890   39.5210   38.1240 C.3    25  GLY25       0.2014
     75  C         95.3940   39.5370   39.5330 C.2    25  GLY25       0.2638
     76  O         95.6660   40.6540   39.9930 O.2    25  GLY25      -0.2714
     77  N         95.5070   38.3720   40.1460 N.am   26  VAL26      -0.1977
     78  CA        95.9570   38.3440   41.5250 C.3    26  VAL26       0.1596
     79  C         97.3580   37.7850   41.6220 C.2    26  VAL26       0.2287
     80  O         97.8650   37.3600   40.6000 O.2    26  VAL26      -0.2864
     81  CB        95.0070   37.4950   42.3700 C.3    26  VAL26       0.0276
     82  CG1       93.6110   38.0820   42.2810 C.3    26  VAL26       0.0022
     83  CG2       95.0480   36.0360   41.9080 C.3    26  VAL26       0.0022
     84  N         94.6750   36.3710   48.4120 N.3    31  LEU31      -0.1245
     85  CA        94.1100   37.6030   47.8860 C.3    31  LEU31       0.1561
     86  C         94.4660   38.6790   48.8960 C.2    31  LEU31       0.2260
     87  O         93.6740   39.5340   49.2910 O.2    31  LEU31      -0.2867
     88  CB        92.6390   37.3650   47.6200 C.3    31  LEU31       0.0270
     89  CG        92.1960   37.3880   46.1520 C.3    31  LEU31       0.0019
     90  CD1       92.9210   36.3410   45.3430 C.3    31  LEU31       0.0001
     91  CD2       90.6930   37.1420   46.0220 C.3    31  LEU31       0.0001
     92  N         94.3670   42.4580   47.4170 N.3    34  GLU34      -0.1245
     93  CA        92.9850   42.8480   47.1770 C.3    34  GLU34       0.1567
     94  C         92.2640   43.0850   48.4940 C.2    34  GLU34       0.2260
     95  O         91.2600   43.7800   48.4970 O.2    34  GLU34      -0.2867
     96  CB        92.2150   41.8250   46.3340 C.3    34  GLU34       0.0388
     97  CG        92.6340   41.7680   44.8910 C.3    34  GLU34       0.1160
     98  CD        93.9900   41.1490   44.6100 C.2    34  GLU34       0.3649
     99  OE1       94.6700   40.6250   45.5370 O.co2  34  GLU34      -0.2457
    100  OE2       94.3260   41.2150   43.3940 O.co2  34  GLU34      -0.2457
    101  N         90.7030   46.9160   50.3130 N.3    38  CYS38      -0.1235
    102  CA        89.3100   47.0830   50.7330 C.3    38  CYS38       0.1677
    103  C         89.3820   47.8930   52.0240 C.2    38  CYS38       0.2270
    104  O         88.8500   48.9600   52.2210 O.2    38  CYS38      -0.2867
    105  CB        88.6210   45.7600   51.0120 C.3    38  CYS38       0.0956
    106  SG        88.6220   44.5590   49.6690 S.3    38  CYS38      -0.0801
    107  N         86.9230   39.5000   50.6630 N.3    71  THR71      -0.1218
    108  CA        86.6870   38.8840   49.3490 C.3    71  THR71       0.1862
    109  C         85.8590   37.6360   49.5070 C.2    71  THR71       0.2287
    110  O         84.9950   37.2990   48.6890 O.2    71  THR71      -0.2866
    111  CB        88.0070   38.7130   48.5940 C.3    71  THR71       0.1770
    112  OG1       89.0850   38.3430   49.4370 O.3    71  THR71      -0.2211
    113  CG2       88.3590   40.0740   47.9870 C.3    71  THR71       0.0375
    114  N         82.2930   39.4640   49.3590 N.3    74  HIS74      -0.1226
    115  CA        82.1680   40.5310   48.3690 C.3    74  HIS74       0.1752
    116  C         83.1470   40.0980   47.2640 C.2    74  HIS74       0.2596
    117  O         84.3710   40.1550   47.4770 O.2    74  HIS74      -0.2718
    118  CB        82.4890   41.9070   48.9030 C.3    74  HIS74       0.0759
    119  CG        81.7350   42.4900   50.0310 C.ar   74  HIS74       0.0818
    120  ND1       80.3660   42.6690   49.9700 N.ar   74  HIS74      -0.2268
    121  CD2       82.1010   42.9990   51.2250 C.ar   74  HIS74       0.1154
    122  CE1       79.9390   43.2390   51.0820 C.ar   74  HIS74       0.1986
    123  NE2       80.9780   43.4540   51.8630 N.ar   74  HIS74      -0.2212
    124  N         82.5570   39.5810   46.2100 N.am   75  LYS75      -0.1966
    125  CA        83.3880   39.0400   45.1200 C.3    75  LYS75       0.1728
    126  C         83.5080   40.1420   44.0860 C.2    75  LYS75       0.2617
    127  O         82.5410   40.9020   44.0600 O.2    75  LYS75      -0.2715
    128  CB        82.7990   37.7800   44.5160 C.3    75  LYS75       0.0311
    129  CG        82.3750   36.6920   45.4680 C.3    75  LYS75       0.0038
    130  CD        83.3950   35.6640   45.8580 C.3    75  LYS75       0.0206
    131  CE        84.2720   35.1490   44.7360 C.3    75  LYS75       0.1093
    132  NZ        85.7140   35.5770   44.8480 N.3    75  LYS75      -0.1314
    133  N         84.6020   40.2820   43.3800 N.am   76  GLY76      -0.1940
    134  CA        84.7370   41.4290   42.4800 C.3    76  GLY76       0.2014
    135  C         83.9740   41.2550   41.1860 C.2    76  GLY76       0.2639
    136  O         82.9420   41.8610   40.9260 O.2    76  GLY76      -0.2714
    137  N         84.4270   40.3450   40.3390 N.am   77  HIS77      -0.1959
    138  CA        83.8380   40.0410   39.0600 C.3    77  HIS77       0.1787
    139  C         82.6930   39.0410   39.1600 C.2    77  HIS77       0.2620
    140  O         82.2840   38.5390   38.1000 O.2    77  HIS77      -0.2715
    141  CB        84.9640   39.4900   38.1710 C.3    77  HIS77       0.0785
    142  CG        86.1810   40.3480   38.2710 C.ar   77  HIS77       0.0821
    143  ND1       86.3590   41.5230   37.5860 N.ar   77  HIS77      -0.2267
    144  CD2       87.3050   40.2000   39.0140 C.ar   77  HIS77       0.1154
    145  CE1       87.5350   42.0490   37.8880 C.ar   77  HIS77       0.1986
    146  NE2       88.1230   41.2620   38.7460 N.ar   77  HIS77      -0.2212
    147  N         82.1430   38.7490   40.3380 N.am   78  GLU78      -0.1977
    148  CA        81.0260   37.7680   40.3470 C.3    78  GLU78       0.1602
    149  C         80.0300   38.0000   41.4670 C.2    78  GLU78       0.2287
    150  O         80.3250   38.3740   42.6210 O.2    78  GLU78      -0.2864
    151  CB        81.7430   36.4510   40.2130 C.3    78  GLU78       0.0415
    152  CG        81.3260   35.1900   40.9190 C.3    78  GLU78       0.1163
    153  CD        82.5790   34.3680   41.1970 C.2    78  GLU78       0.3649
    154  OE1       83.3910   34.1120   40.2840 O.co2  78  GLU78      -0.2457
    155  OE2       82.7990   33.9900   42.3630 O.co2  78  GLU78      -0.2457
    156  N         92.5540   28.7080   43.8240 N.3   296  GLU296     -0.1231
    157  CA        91.3970   29.0020   42.9860 C.3   296  GLU296      0.1699
    158  C         91.7070   30.0960   41.9900 C.2   296  GLU296      0.2592
    159  O         90.9850   30.2740   41.0220 O.2   296  GLU296     -0.2718
    160  CB        90.1310   29.3690   43.7590 C.3   296  GLU296      0.0402
    161  CG        88.9370   29.2750   42.8140 C.3   296  GLU296      0.1161
    162  CD        87.6350   29.3480   43.5920 C.2   296  GLU296      0.3649
    163  OE1       87.6010   28.6790   44.6490 O.co2 296  GLU296     -0.2457
    164  OE2       86.7090   30.0520   43.1200 O.co2 296  GLU296     -0.2457
    165  N         92.7270   30.8790   42.3260 N.am  297  TYR297     -0.1976
    166  CA        93.1480   31.9770   41.4760 C.3   297  TYR297      0.1639
    167  C         94.4760   31.6470   40.8410 C.2   297  TYR297      0.2290
    168  O         94.6270   31.9920   39.6890 O.2   297  TYR297     -0.2864
    169  CB        93.1680   33.2720   42.3030 C.3   297  TYR297      0.0560
    170  CG        91.8270   33.4110   42.9870 C.ar  297  TYR297     -0.0198
    171  CD1       91.7000   33.1270   44.3370 C.ar  297  TYR297     -0.0009
    172  CD2       90.7220   33.7420   42.2330 C.ar  297  TYR297     -0.0009
    173  CE1       90.4470   33.2050   44.9270 C.ar  297  TYR297      0.0417
    174  CE2       89.4840   33.8230   42.8190 C.ar  297  TYR297      0.0417
    175  CZ        89.3590   33.5540   44.1650 C.ar  297  TYR297      0.1957
    176  OH        88.1050   33.6410   44.7360 O.3   297  TYR297     -0.2866
@<TRIPOS>BOND
     1    67    68    1
     2    67    66    1
     3    66    65    1
     4    65    64    1
     5    64    61    1
     6    61    62    1
     7    61    60    1
     8    63    62    2
     9    62    69   am
    10    37    36    1
    11    69    70    1
    12    72    71    2
    13    70    71    1
    14    27    26    2
    15    36    33    1
    16    71    73   am
    17    29    30    1
    18    29    28    1
    19    26    25    1
    20   143   145   ar
    21   143   142   ar
    22    25    24    1
    23    30    31    2
    24    30    32   am
    25    32    33    1
    26    73    74    1
    27   145   146   ar
    28   140   139    2
    29    74    75    1
    30   141   142    1
    31   141   138    1
    32    33    34    1
    33   142   144   ar
    34   146   144   ar
    35    24    16   am
    36   138   139    1
    37   138   137    1
    38   139   147   am
    39    34    35    2
    40    12    11    2
    41    11    10    1
    42    75    76    2
    43    75    77   am
    44   168   167    2
    45    13    10    1
    46    17    16    2
    47    16    15    1
    48    77    78    1
    49    57    59   ar
    50    57    55   ar
    51   151   148    1
    52   151   152    1
    53   154   153   ar
    54   147   148    1
    55   137   135   am
    56   148   149    1
    57    10     9    1
    58    59    58   ar
    59    80    79    2
    60    54    55    1
    61    54    51    1
    62    55    56   ar
    63   167   166    1
    64    14    15    1
    65   152   153    1
    66   136   135    2
    67   159   158    2
    68   135   134    1
    69    58    56   ar
    70   153   155   ar
    71    15    18    1
    72     9     3   am
    73   149   150    2
    74   166   169    1
    75   166   165    1
    76    78    79    1
    77    78    81    1
    78    53    52    2
    79    38    39    1
    80     4     3    2
    81    83    81    1
    82     3     2    1
    83   158   165   am
    84   158   157    1
    85     1     2    1
    86    51    52    1
    87    51    50    1
    88    43    42    1
    89    18    19    1
    90    42    39    1
    91   172   174   ar
    92   172   170   ar
    93    82    81    1
    94   169   170    1
    95    50    46   am
    96   134   133    1
    97     2     5    1
    98    39    40    1
    99   161   162    1
   100   161   160    1
   101   174   175   ar
   102   157   160    1
   103   157   156    1
   104   170   171   ar
   105   164   162   ar
   106    44    40   am
   107    44    45    1
   108   133   126   am
   109   100    98   ar
   110    19    20   ar
   111    19    21   ar
   112   162   163   ar
   113    46    45    1
   114    46    47    2
   115    40    41    2
   116    20    22   ar
   117     5     6    1
   118   127   126    2
   119   126   125    1
   120    45    48    1
   121   175   176    1
   122   175   173   ar
   123    48    49    1
   124   171   173   ar
   125   128   125    1
   126   128   129    1
   127    98    97    1
   128    98    99   ar
   129    21    23   ar
   130   131   132    1
   131   131   130    1
   132    97    96    1
   133   125   124    1
   134    22    23   ar
   135    90    89    1
   136     6     8    1
   137     6     7    1
   138   129   130    1
   139    91    89    1
   140    89    88    1
   141   124   116   am
   142    96    93    1
   143    93    92    1
   144    93    94    1
   145   116   117    2
   146   116   115    1
   147    88    85    1
   148    85    84    1
   149    85    86    1
   150   113   111    1
   151   115   118    1
   152   115   114    1
   153    94    95    2
   154   111   108    1
   155   111   112    1
   156   110   109    2
   157    86    87    2
   158   118   119    1
   159   108   109    1
   160   108   107    1
   161   106   105    1
   162   120   119   ar
   163   120   122   ar
   164   119   121   ar
   165   101   102    1
   166   102   105    1
   167   102   103    1
   168   122   123   ar
   169   121   123   ar
   170   103   104    2
