@<TRIPOS>MOLECULE
tmp/1d4cD01.pdb
 179 175 0 0 0
SMALL
GASTEIGER

@<TRIPOS>ATOM
      1  N         90.7030   46.9160   50.3130 N.3    38  CYS38      -0.1221
      2  CA        89.3100   47.0830   50.7330 C.3    38  CYS38       0.1808
      3  C         89.3820   47.8930   52.0240 C.2    38  CYS38       0.2601
      4  O         88.8500   48.9600   52.2210 O.2    38  CYS38      -0.2717
      5  CB        88.6210   45.7600   51.0120 C.3    38  CYS38       0.0970
      6  SG        88.6220   44.5590   49.6690 S.3    38  CYS38      -0.0800
      7  N         90.2160   47.3640   52.9000 N.am   39  VAL39      -0.1979
      8  CA        90.4860   47.9790   54.1870 C.3    39  VAL39       0.1595
      9  C         90.9730   49.3910   53.9520 C.2    39  VAL39       0.2287
     10  O         90.5460   50.2740   54.6700 O.2    39  VAL39      -0.2864
     11  CB        91.4970   47.1120   54.9680 C.3    39  VAL39       0.0276
     12  CG1       91.7950   47.7070   56.3190 C.3    39  VAL39       0.0022
     13  CG2       90.8620   45.7360   55.1110 C.3    39  VAL39       0.0022
     14  N         87.8970   51.3200   53.3120 N.3    42  HIS42      -0.1226
     15  CA        86.6080   51.1590   54.0060 C.3    42  HIS42       0.1752
     16  C         86.6610   50.7870   55.4730 C.2    42  HIS42       0.2597
     17  O         85.6160   50.5710   56.0860 O.2    42  HIS42      -0.2718
     18  CB        85.7790   50.0590   53.3540 C.3    42  HIS42       0.0759
     19  CG        85.1980   50.2830   52.0030 C.ar   42  HIS42       0.0818
     20  ND1       84.0880   51.0880   51.8200 N.ar   42  HIS42      -0.2268
     21  CD2       85.5100   49.7970   50.7750 C.ar   42  HIS42       0.1154
     22  CE1       83.7520   51.0720   50.5570 C.ar   42  HIS42       0.1986
     23  NE2       84.5970   50.3140   49.8960 N.ar   42  HIS42      -0.2212
     24  N         87.8360   50.6260   56.0250 N.am   43  GLY43      -0.1942
     25  CA        87.9050   50.2040   57.4200 C.3    43  GLY43       0.2014
     26  C         88.1150   48.6880   57.4100 C.2    43  GLY43       0.2639
     27  O         88.1880   48.1020   56.3350 O.2    43  GLY43      -0.2714
     28  N         88.3200   48.1030   58.5920 N.am   44  ASP44      -0.1957
     29  CA        88.5640   46.6600   58.6090 C.3    44  ASP44       0.1840
     30  C         87.4450   46.0080   59.4180 C.2    44  ASP44       0.2621
     31  O         86.6470   46.6970   60.0400 O.2    44  ASP44      -0.2715
     32  CB        89.9220   46.2400   59.1300 C.3    44  ASP44       0.1450
     33  CG        90.1740   46.5620   60.5760 C.2    44  ASP44       0.3671
     34  OD1       91.3070   46.4340   61.0680 O.co2  44  ASP44      -0.2456
     35  OD2       89.2630   46.9560   61.3140 O.co2  44  ASP44      -0.2456
     36  N         87.4380   44.6850   59.4750 N.am   45  LEU45      -0.1977
     37  CA        86.3760   43.9790   60.1150 C.3    45  LEU45       0.1596
     38  C         86.0320   44.4890   61.4950 C.2    45  LEU45       0.2287
     39  O         84.8360   44.4840   61.7910 O.2    45  LEU45      -0.2864
     40  CB        86.6080   42.4810   60.1750 C.3    45  LEU45       0.0297
     41  CG        86.0700   41.5220   59.1190 C.3    45  LEU45       0.0022
     42  CD1       85.7120   40.2020   59.7790 C.3    45  LEU45       0.0001
     43  CD2       84.8800   42.0540   58.3420 C.3    45  LEU45       0.0001
     44  N         84.4150   47.8730   60.9840 N.3    48  LEU48      -0.1245
     45  CA        83.1160   47.5770   60.4190 C.3    48  LEU48       0.1561
     46  C         82.1970   47.0130   61.4720 C.2    48  LEU48       0.2260
     47  O         81.0200   47.3690   61.5140 O.2    48  LEU48      -0.2867
     48  CB        83.3080   46.6580   59.2240 C.3    48  LEU48       0.0270
     49  CG        83.5810   47.3110   57.8680 C.3    48  LEU48       0.0019
     50  CD1       83.4410   46.2330   56.8060 C.3    48  LEU48       0.0001
     51  CD2       82.6470   48.4820   57.6420 C.3    48  LEU48       0.0001
     52  N         80.3480   49.1000   63.5710 N.3    51  ALA51      -0.1245
     53  CA        79.5050   49.2960   62.4240 C.3    51  ALA51       0.1562
     54  C         78.3070   48.4080   62.3340 C.2    51  ALA51       0.2260
     55  O         77.5370   48.5310   61.3780 O.2    51  ALA51      -0.2867
     56  CB        80.3760   49.1890   61.1570 C.3    51  ALA51       0.0290
     57  N         76.6490   40.9920   59.2840 N.3    59  PRO59      -0.2102
     58  CA        77.6160   40.0540   58.7060 C.3    59  PRO59       0.1504
     59  C         79.0240   40.4860   59.1170 C.2    59  PRO59       0.2572
     60  O         79.9850   39.7090   58.9410 O.2    59  PRO59      -0.2718
     61  CB        77.3540   40.1660   57.2140 C.3    59  PRO59       0.0282
     62  CG        76.7790   41.5360   57.0160 C.3    59  PRO59       0.0208
     63  CD        75.9830   41.8040   58.2660 C.3    59  PRO59       0.0893
     64  N         79.1840   41.7560   59.5890 N.am   60  HIS60      -0.2029
     65  CA        80.5060   42.2120   59.9200 C.3    60  HIS60       0.1342
     66  C         80.9620   41.7710   61.2790 C.3    60  HIS60       0.2040
     67  O         82.1410   42.0030   61.5070 O.3    60  HIS60      -0.2185
     68  CB        80.7980   43.6790   59.6800 C.3    60  HIS60       0.0718
     69  CG        80.6250   44.0490   58.2460 C.ar   60  HIS60       0.0817
     70  ND1       80.0290   45.2030   57.8170 N.ar   60  HIS60      -0.2268
     71  CD2       80.9480   43.3550   57.1280 C.ar   60  HIS60       0.1154
     72  CE1       80.0100   45.2140   56.4870 C.ar   60  HIS60       0.1986
     73  NE2       80.5600   44.0830   56.0570 N.ar   60  HIS60      -0.2212
     74  N         80.6300   38.1110   63.4870 N.3    62  SER62      -0.1217
     75  CA        80.1250   36.7690   63.5430 C.3    62  SER62       0.1889
     76  C         81.0110   36.0230   64.5240 C.2    62  SER62       0.2288
     77  O         81.9230   36.6170   65.0580 O.2    62  SER62      -0.2866
     78  CB        80.2250   36.0800   62.1840 C.3    62  SER62       0.2089
     79  OG        81.4600   36.3470   61.5050 O.3    62  SER62      -0.2183
     80  N         82.6940   33.5250   63.3560 N.3    64  LEU64      -0.1245
     81  CA        83.7010   32.7740   62.5810 C.3    64  LEU64       0.1561
     82  C         85.0840   33.0160   63.1110 C.2    64  LEU64       0.2260
     83  O         85.2760   34.0850   63.6750 O.2    64  LEU64      -0.2867
     84  CB        83.5320   33.0310   61.0990 C.3    64  LEU64       0.0270
     85  CG        82.1660   32.5580   60.5400 C.3    64  LEU64       0.0019
     86  CD1       81.9830   32.9240   59.0870 C.3    64  LEU64       0.0001
     87  CD2       81.9850   31.0800   60.8130 C.3    64  LEU64       0.0001
     88  N         88.9800   36.4400   58.3570 N.3    68  ILE68      -0.1231
     89  CA        87.8100   36.3930   57.4710 C.3    68  ILE68       0.1692
     90  C         87.8760   37.4840   56.4420 C.2    68  ILE68       0.2592
     91  O         87.2710   38.5530   56.5450 O.2    68  ILE68      -0.2718
     92  CB        86.5420   36.0880   58.2710 C.3    68  ILE68       0.0266
     93  CG1       85.3620   36.9780   57.8430 C.3    68  ILE68       0.0019
     94  CG2       86.7400   36.0720   59.7680 C.3    68  ILE68       0.0020
     95  CD1       85.0340   36.4560   56.4290 C.3    68  ILE68       0.0001
     96  N         88.5670   37.1400   55.3360 N.am   69  ALA69      -0.1966
     97  CA        88.7590   38.0850   54.2400 C.3    69  ALA69       0.1728
     98  C         87.4650   38.6980   53.7450 C.2    69  ALA69       0.2616
     99  O         86.3670   38.1970   53.9580 O.2    69  ALA69      -0.2715
    100  CB        89.5900   37.5730   53.1120 C.3    69  ALA69       0.0334
    101  N         87.5310   39.8690   53.1270 N.am   70  CYS70      -0.1968
    102  CA        86.3080   40.5310   52.7020 C.3    70  CYS70       0.1712
    103  C         85.8610   39.8180   51.4350 C.2    70  CYS70       0.2296
    104  O         84.6810   39.5600   51.1940 O.2    70  CYS70      -0.2864
    105  CB        86.4740   42.0040   52.3700 C.3    70  CYS70       0.0983
    106  SG        87.5910   42.9510   53.4310 S.3    70  CYS70      -0.0798
    107  N         83.0570   37.2050   50.7690 N.3    73  CYS73      -0.1221
    108  CA        81.6580   37.4590   50.5190 C.3    73  CYS73       0.1808
    109  C         81.3830   38.5070   49.4330 C.2    73  CYS73       0.2601
    110  O         80.2730   38.5770   48.9130 O.2    73  CYS73      -0.2717
    111  CB        80.9840   38.1190   51.6860 C.3    73  CYS73       0.0970
    112  SG        81.1940   37.1810   53.1410 S.3    73  CYS73      -0.0800
    113  N         82.2930   39.4640   49.3590 N.am   74  HIS74      -0.1975
    114  CA        82.1680   40.5310   48.3690 C.3    74  HIS74       0.1656
    115  C         83.1470   40.0980   47.2640 C.2    74  HIS74       0.2291
    116  O         84.3710   40.1550   47.4770 O.2    74  HIS74      -0.2864
    117  CB        82.4890   41.9070   48.9030 C.3    74  HIS74       0.0771
    118  CG        81.7350   42.4900   50.0310 C.ar   74  HIS74       0.0820
    119  ND1       80.3660   42.6690   49.9700 N.ar   74  HIS74      -0.2267
    120  CD2       82.1010   42.9990   51.2250 C.ar   74  HIS74       0.1154
    121  CE1       79.9390   43.2390   51.0820 C.ar   74  HIS74       0.1986
    122  NE2       80.9780   43.4540   51.8630 N.ar   74  HIS74      -0.2212
    123  N         76.6480   36.4020   50.9890 N.3    82  ALA82      -0.1231
    124  CA        77.1690   36.4040   52.3710 C.3    82  ALA82       0.1694
    125  C         77.6300   34.9940   52.6690 C.2    82  ALA82       0.2592
    126  O         76.7710   34.1010   52.7510 O.2    82  ALA82      -0.2718
    127  CB        76.1010   36.8750   53.3300 C.3    82  ALA82       0.0304
    128  N         78.8620   34.6930   52.9930 N.am   83  TYR83      -0.1962
    129  CA        79.2440   33.3490   53.3780 C.3    83  TYR83       0.1771
    130  C         78.2480   32.8300   54.3860 C.2    83  TYR83       0.2619
    131  O         77.6990   31.7390   54.1670 O.2    83  TYR83      -0.2715
    132  CB        80.6280   33.1970   53.9370 C.3    83  TYR83       0.0574
    133  CG        81.2030   31.8020   54.0070 C.ar   83  TYR83      -0.0198
    134  CD1       81.2840   31.1840   55.2630 C.ar   83  TYR83      -0.0009
    135  CD2       81.6880   31.1030   52.9040 C.ar   83  TYR83      -0.0009
    136  CE1       81.8180   29.9330   55.4450 C.ar   83  TYR83       0.0417
    137  CE2       82.2120   29.8350   53.0540 C.ar   83  TYR83       0.0417
    138  CZ        82.2820   29.2640   54.3250 C.ar   83  TYR83       0.1957
    139  OH        82.7920   27.9900   54.5120 O.3    83  TYR83      -0.2866
    140  N         77.7970   33.5580   55.3790 N.am   84  CYS84      -0.1968
    141  CA        76.7480   33.1640   56.2900 C.3    84  CYS84       0.1712
    142  C         75.6250   32.4120   55.6130 C.2    84  CYS84       0.2296
    143  O         75.0410   31.5920   56.2910 O.2    84  CYS84      -0.2864
    144  CB        76.0820   34.3960   56.9710 C.3    84  CYS84       0.0983
    145  SG        77.2270   35.7660   57.2400 S.3    84  CYS84      -0.0798
    146  N         70.1640   38.8610   54.1360 N.3    92  PHE92      -0.1227
    147  CA        70.8340   40.1370   54.0690 C.3    92  PHE92       0.1736
    148  C         70.6390   40.8040   52.7090 C.2    92  PHE92       0.2595
    149  O         70.5530   40.1500   51.6810 O.2    92  PHE92      -0.2718
    150  CB        72.3240   40.0010   54.2460 C.3    92  PHE92       0.0547
    151  CG        72.7660   39.6250   55.6140 C.ar   92  PHE92      -0.0202
    152  CD1       73.5100   38.4640   55.8120 C.ar   92  PHE92      -0.0042
    153  CD2       72.4710   40.4300   56.6810 C.ar   92  PHE92      -0.0042
    154  CE1       73.9430   38.1170   57.0760 C.ar   92  PHE92      -0.0003
    155  CE2       72.9070   40.1000   57.9370 C.ar   92  PHE92      -0.0003
    156  CZ        73.6270   38.9450   58.1430 C.ar   92  PHE92      -0.0000
    157  N         70.6510   42.1230   52.7410 N.am   93  ASP93      -0.1960
    158  CA        70.4570   42.8410   51.4720 C.3    93  ASP93       0.1840
    159  C         71.8330   43.2560   50.9960 C.2    93  ASP93       0.2622
    160  O         72.2610   44.4080   51.1440 O.2    93  ASP93      -0.2715
    161  CB        69.4390   43.9230   51.7190 C.3    93  ASP93       0.1450
    162  CG        69.2940   45.0090   50.6860 C.2    93  ASP93       0.3671
    163  OD1       69.0270   44.7800   49.4880 O.co2  93  ASP93      -0.2456
    164  OD2       69.4620   46.1550   51.1860 O.co2  93  ASP93      -0.2456
    165  N         72.5370   42.2620   50.4420 N.am   94  MET94      -0.1964
    166  CA        73.9040   42.5320   49.9830 C.3    94  MET94       0.1722
    167  C         73.9640   43.1830   48.6170 C.2    94  MET94       0.2458
    168  O         73.2850   42.8010   47.6670 O.2    94  MET94      -0.2730
    169  CB        74.6290   41.2030   50.0860 C.3    94  MET94       0.0427
    170  CG        75.8300   40.9670   49.2140 C.3    94  MET94       0.0599
    171  SD        77.3190   41.3900   50.0940 S.3    94  MET94      -0.1393
    172  CE        77.8990   39.8570   50.7160 C.3    94  MET94       0.0692
    173  N         74.7640   44.2410   48.5020 N.am   95  PRO95      -0.2727
    174  CA        75.0010   44.9000   47.2360 C.3    95  PRO95       0.1402
    175  C         75.6040   43.8860   46.2790 C.2    95  PRO95       0.2269
    176  O         76.3830   43.0360   46.6670 O.2    95  PRO95      -0.2865
    177  CB        75.9910   45.9930   47.5560 C.3    95  PRO95       0.0296
    178  CG        76.5450   45.7300   48.9100 C.3    95  PRO95       0.0237
    179  CD        75.6310   44.7670   49.6050 C.3    95  PRO95       0.0939
@<TRIPOS>BOND
     1   175   176    2
     2   175   174    1
     3   174   177    1
     4   174   173    1
     5   115   116    2
     6   115   114    1
     7   177   178    1
     8   168   167    2
     9   114   117    1
    10   114   113    1
    11   173   167   am
    12   173   179    1
    13   167   166    1
    14   117   118    1
    15   178   179    1
    16   110   109    2
    17   170   169    1
    18   170   171    1
    19   113   109   am
    20   109   108    1
    21   163   162   ar
    22     6     5    1
    23    23    22   ar
    24    23    21   ar
    25   119   118   ar
    26   119   121   ar
    27   166   169    1
    28   166   165    1
    29   118   120   ar
    30   171   172    1
    31     1     2    1
    32   165   159   am
    33   108   107    1
    34   108   111    1
    35    22    20   ar
    36   162   164   ar
    37   162   161    1
    38     2     5    1
    39     2     3    1
    40    21    19   ar
    41   123   124    1
    42   159   160    2
    43   159   158    1
    44   121   122   ar
    45   104   103    2
    46   120   122   ar
    47   103   102    1
    48   158   161    1
    49   158   157    1
    50   149   148    2
    51   111   112    1
    52    20    19   ar
    53    19    18    1
    54     3     4    2
    55     3     7   am
    56   105   102    1
    57   105   106    1
    58   124   125    1
    59   124   127    1
    60   125   126    2
    61   125   128   am
    62   102   101    1
    63   148   157   am
    64   148   147    1
    65     7     8    1
    66   135   137   ar
    67   135   133   ar
    68   128   129    1
    69   137   138   ar
    70   100    97    1
    71   101    98   am
    72    14    15    1
    73    18    15    1
    74   129   132    1
    75   129   130    1
    76    98    99    2
    77    98    97    1
    78   132   133    1
    79     9     8    1
    80     9    10    2
    81    15    16    1
    82   133   134   ar
    83   147   146    1
    84   147   150    1
    85   131   130    2
    86     8    11    1
    87    97    96    1
    88   150   151    1
    89   138   139    1
    90   138   136   ar
    91   130   140   am
    92    11    13    1
    93    11    12    1
    94   134   136   ar
    95    96    90   am
    96   140   141    1
    97    16    24   am
    98    16    17    2
    99   142   141    1
   100   142   143    2
   101   151   152   ar
   102   151   153   ar
   103   152   154   ar
   104    24    25    1
   105    73    72   ar
   106    73    71   ar
   107   141   144    1
   108    27    26    2
   109    95    93    1
   110    90    91    2
   111    90    89    1
   112    72    70   ar
   113   153   155   ar
   114    50    49    1
   115   144   145    1
   116    62    61    1
   117    62    63    1
   118   154   156   ar
   119    71    69   ar
   120    61    58    1
   121    26    25    1
   122    26    28   am
   123    89    92    1
   124    89    88    1
   125    51    49    1
   126    70    69   ar
   127    93    92    1
   128    49    48    1
   129   155   156   ar
   130    69    68    1
   131    63    57    1
   132    92    94    1
   133    43    41    1
   134    28    29    1
   135    29    32    1
   136    29    30    1
   137    58    59    1
   138    58    57    1
   139    60    59    2
   140    86    85    1
   141    59    64   am
   142    41    42    1
   143    41    40    1
   144    32    33    1
   145    48    45    1
   146    30    36   am
   147    30    31    2
   148    36    37    1
   149    64    65    1
   150    68    65    1
   151    65    66    1
   152    37    40    1
   153    37    38    1
   154    45    44    1
   155    45    46    1
   156    85    87    1
   157    85    84    1
   158    33    34   ar
   159    33    35   ar
   160    84    81    1
   161    56    53    1
   162    66    67    1
   163    55    54    2
   164    46    47    2
   165    38    39    2
   166    79    78    1
   167    78    75    1
   168    54    53    1
   169    53    52    1
   170    81    82    1
   171    81    80    1
   172    82    83    2
   173    74    75    1
   174    75    76    1
   175    76    77    2
