@<TRIPOS>MOLECULE
tmp/1d4cC00.pdb
 89 87 0 0 0
SMALL
GASTEIGER

@<TRIPOS>ATOM
      1  N         11.1590   52.9400   -1.6390 N.3   198  ARG198     -0.1245
      2  CA        11.2940   51.4820   -1.8090 C.3   198  ARG198      0.1563
      3  C         11.3170   50.7810   -0.4650 C.2   198  ARG198      0.2260
      4  O         12.1430   49.9270   -0.1960 O.2   198  ARG198     -0.2867
      5  CB        12.5650   51.2090   -2.6110 C.3   198  ARG198      0.0307
      6  CG        12.3480   51.3320   -4.0900 C.3   198  ARG198      0.0489
      7  CD        13.2360   52.2220   -4.9150 C.3   198  ARG198      0.2205
      8  NE        14.6140   51.8420   -4.8880 N.pl3 198  ARG198     -0.0865
      9  CZ        15.6160   52.5280   -5.4340 C.cat 198  ARG198      0.5346
     10  NH1       15.4930   53.6820   -6.1030 N.pl3 198  ARG198      0.1354
     11  NH2       16.8400   51.9840   -5.2640 N.pl3 198  ARG198      0.1354
     12  N         32.2820   58.4230   -6.4400 N.3   322  LYS322     -0.1231
     13  CA        32.7820   57.1370   -5.9680 C.3   322  LYS322      0.1693
     14  C         31.5840   56.1710   -5.9100 C.2   322  LYS322      0.2592
     15  O         31.6960   54.9910   -6.1830 O.2   322  LYS322     -0.2718
     16  CB        33.3330   57.2920   -4.5530 C.3   322  LYS322      0.0285
     17  CG        34.4410   58.2710   -4.3160 C.3   322  LYS322      0.0035
     18  CD        35.8460   57.7080   -4.2190 C.3   322  LYS322      0.0206
     19  CE        36.3550   57.0130   -5.4780 C.3   322  LYS322      0.1093
     20  NZ        37.0410   55.6970   -5.2180 N.3   322  LYS322     -0.1314
     21  N         30.3870   56.5850   -5.4980 N.am  323  TYR323     -0.1962
     22  CA        29.2130   55.7660   -5.3560 C.3   323  TYR323      0.1771
     23  C         28.6180   55.4950   -6.7180 C.2   323  TYR323      0.2620
     24  O         28.3750   54.3320   -7.0680 O.2   323  TYR323     -0.2715
     25  CB        28.1880   56.3660   -4.3950 C.3   323  TYR323      0.0574
     26  CG        28.7670   56.4300   -3.0060 C.ar  323  TYR323     -0.0198
     27  CD1       29.1810   57.6170   -2.4630 C.ar  323  TYR323     -0.0009
     28  CD2       28.9510   55.3080   -2.2230 C.ar  323  TYR323     -0.0009
     29  CE1       29.7680   57.7150   -1.2090 C.ar  323  TYR323      0.0417
     30  CE2       29.5270   55.4000   -0.9770 C.ar  323  TYR323      0.0417
     31  CZ        29.9470   56.5930   -0.4390 C.ar  323  TYR323      0.1957
     32  OH        30.5010   56.6640    0.8350 O.3   323  TYR323     -0.2866
     33  N         28.3280   56.5290   -7.4860 N.am  324  ASP324     -0.1958
     34  CA        27.6820   56.3830   -8.7860 C.3   324  ASP324      0.1825
     35  C         28.4150   57.1680   -9.8390 C.2   324  ASP324      0.2461
     36  O         28.2790   58.3660  -10.0510 O.2   324  ASP324     -0.2730
     37  CB        26.2780   56.9500   -8.7390 C.3   324  ASP324      0.1450
     38  CG        25.4460   56.9120   -9.9940 C.2   324  ASP324      0.3671
     39  OD1       24.2230   57.0890   -9.7480 O.co2 324  ASP324     -0.2456
     40  OD2       25.8850   56.7180  -11.1390 O.co2 324  ASP324     -0.2456
     41  N         29.2920   56.5120  -10.5640 N.am  325  PRO325     -0.2772
     42  CA        30.0830   57.1750  -11.6070 C.3   325  PRO325      0.1083
     43  C         29.2490   57.8300  -12.6760 C.3   325  PRO325      0.2017
     44  O         29.7650   58.8670  -13.1020 O.3   325  PRO325     -0.2186
     45  CB        31.0500   56.0830  -12.0010 C.3   325  PRO325      0.0243
     46  CG        31.1950   55.2560  -10.7590 C.3   325  PRO325      0.0233
     47  CD        29.7220   55.0990  -10.3830 C.3   325  PRO325      0.0935
     48  N         24.8650   55.3080   -0.7830 N.3   357  GLU357     -0.1231
     49  CA        24.9610   55.2140   -2.2330 C.3   357  GLU357      0.1699
     50  C         23.7490   55.7160   -2.9900 C.2   357  GLU357      0.2592
     51  O         23.6640   55.6050   -4.2050 O.2   357  GLU357     -0.2718
     52  CB        25.2060   53.7500   -2.6080 C.3   357  GLU357      0.0402
     53  CG        23.9300   52.9770   -2.2450 C.3   357  GLU357      0.1161
     54  CD        23.9840   52.1870   -0.9600 C.2   357  GLU357      0.3649
     55  OE1       23.8770   50.9450   -1.0210 O.co2 357  GLU357     -0.2457
     56  OE2       24.1990   52.7930    0.0970 O.co2 357  GLU357     -0.2457
     57  N         22.6920   56.0860   -2.2830 N.am  358  TYR358     -0.1962
     58  CA        21.4150   56.5430   -2.8490 C.3   358  TYR358      0.1771
     59  C         21.5110   58.0620   -2.9590 C.2   358  TYR358      0.2619
     60  O         21.5290   58.8120   -1.9740 O.2   358  TYR358     -0.2715
     61  CB        20.2810   56.0000   -1.9640 C.3   358  TYR358      0.0574
     62  CG        20.1260   54.4980   -1.9920 C.ar  358  TYR358     -0.0198
     63  CD1       20.2640   53.7860   -0.8140 C.ar  358  TYR358     -0.0009
     64  CD2       19.9000   53.7490   -3.1390 C.ar  358  TYR358     -0.0009
     65  CE1       20.1460   52.4000   -0.7690 C.ar  358  TYR358      0.0417
     66  CE2       19.8290   52.3680   -3.1360 C.ar  358  TYR358      0.0417
     67  CZ        19.9340   51.7220   -1.9330 C.ar  358  TYR358      0.1957
     68  OH        19.8420   50.3720   -1.8240 O.3   358  TYR358     -0.2866
     69  N         21.7610   58.5530   -4.1670 N.am  359  ILE359     -0.1977
     70  CA        21.9940   59.9770   -4.3990 C.3   359  ILE359      0.1596
     71  C         20.9380   60.4530   -5.3420 C.2   359  ILE359      0.2287
     72  O         20.8230   59.8080   -6.3540 O.2   359  ILE359     -0.2864
     73  CB        23.3630   60.2110   -5.0130 C.3   359  ILE359      0.0276
     74  CG1       24.4330   59.9460   -3.9260 C.3   359  ILE359      0.0022
     75  CG2       23.6070   61.6080   -5.5800 C.3   359  ILE359      0.0022
     76  CD1       25.5860   59.1460   -4.4720 C.3   359  ILE359      0.0001
     77  N         20.3490   60.9960    0.3420 N.3   504  MET504     -0.1301
     78  CA        19.5170   60.2210    1.2320 C.3   504  MET504      0.1256
     79  C         20.4050   59.6130    2.2590 C.3   504  MET504      0.2010
     80  O         19.9980   59.9500    3.3820 O.3   504  MET504     -0.2188
     81  CB        18.5870   59.2740    0.5220 C.3   504  MET504      0.0333
     82  CG        17.3910   59.8770   -0.2300 C.3   504  MET504      0.0592
     83  SD        17.8010   60.6200   -1.8250 S.3   504  MET504     -0.1393
     84  CE        18.1720   59.0350   -2.6470 C.3   504  MET504      0.0692
     85  N         15.7260   54.9600    0.1060 N.3   540  ALA540     -0.1245
     86  CA        16.3820   55.0060   -1.1990 C.3   540  ALA540      0.1562
     87  C         16.0120   56.1750   -2.0830 C.2   540  ALA540      0.2260
     88  O         16.6640   56.4850   -3.0790 O.2   540  ALA540     -0.2867
     89  CB        16.0320   53.6600   -1.8380 C.3   540  ALA540      0.0290
@<TRIPOS>BOND
     1    44    43    1
     2    43    42    1
     3    45    42    1
     4    45    46    1
     5    42    41    1
     6    40    38   ar
     7    46    47    1
     8    41    47    1
     9    41    35   am
    10    36    35    2
    11    38    39   ar
    12    38    37    1
    13    35    34    1
    14    34    37    1
    15    34    33    1
    16    33    23   am
    17    24    23    2
    18    23    22    1
    19    12    13    1
    20    72    71    2
    21    15    14    2
    22    10     9    1
    23    13    14    1
    24    13    16    1
    25    14    21   am
    26    75    73    1
    27    21    22    1
    28    19    20    1
    29    19    18    1
    30     9    11    1
    31     9     8    2
    32    22    25    1
    33    71    70    1
    34    73    70    1
    35    73    74    1
    36     7     8    1
    37     7     6    1
    38    16    17    1
    39    76    74    1
    40    70    69    1
    41    25    26    1
    42    17    18    1
    43    51    50    2
    44    69    59   am
    45     6     5    1
    46    64    66   ar
    47    64    62   ar
    48    66    67   ar
    49    88    87    2
    50    26    27   ar
    51    26    28   ar
    52    50    57   am
    53    50    49    1
    54    59    58    1
    55    59    60    2
    56    58    57    1
    57    58    61    1
    58    84    83    1
    59     5     2    1
    60    52    53    1
    61    52    49    1
    62    27    29   ar
    63    53    54    1
    64    49    48    1
    65    28    30   ar
    66    87    86    1
    67    62    61    1
    68    62    63   ar
    69    67    68    1
    70    67    65   ar
    71    89    86    1
    72    83    82    1
    73     2     1    1
    74     2     3    1
    75    29    31   ar
    76    86    85    1
    77    55    54   ar
    78    30    31   ar
    79    54    56   ar
    80    63    65   ar
    81     3     4    2
    82    31    32    1
    83    82    81    1
    84    77    78    1
    85    81    78    1
    86    78    79    1
    87    79    80    1
