@<TRIPOS>MOLECULE
tmp/1d4eA05.pdb
 96 88 0 0 0
SMALL
GASTEIGER

@<TRIPOS>ATOM
      1  N         12.3530   44.2070   18.7150 N.3   162  ALA162     -0.1231
      2  CA        13.6880   44.3990   19.2710 C.3   162  ALA162      0.1694
      3  C         14.3410   45.6750   18.7740 C.2   162  ALA162      0.2593
      4  O         14.5100   46.6540   19.4750 O.2   162  ALA162     -0.2718
      5  CB        14.6430   43.2510   18.9220 C.3   162  ALA162      0.0304
      6  N         14.7420   45.6680   17.5170 N.am  163  GLY163     -0.1942
      7  CA        15.5470   46.6970   16.9730 C.3   163  GLY163      0.2014
      8  C         15.1610   48.0390   16.4810 C.2   163  GLY163      0.2639
      9  O         16.0590   48.5610   15.7740 O.2   163  GLY163     -0.2714
     10  N         14.0320   48.6990   16.6710 N.am  164  GLY164     -0.1954
     11  CA        13.8080   50.0150   16.1270 C.3   164  GLY164      0.1869
     12  C         12.6020   50.3150   15.2570 C.2   164  GLY164      0.2309
     13  O         12.0760   49.4240   14.5790 O.2   164  GLY164     -0.2863
     14  N         19.6260   49.2940   10.3520 N.3   229  MET229     -0.1245
     15  CA        18.9380   48.0120   10.1120 C.3   229  MET229      0.1570
     16  C         19.3750   47.5500    8.7200 C.2   229  MET229      0.2261
     17  O         19.7740   48.4160    7.9170 O.2   229  MET229     -0.2867
     18  CB        17.4340   48.1870   10.2860 C.3   229  MET229      0.0387
     19  CG        16.8730   48.2200   11.6950 C.3   229  MET229      0.0595
     20  SD        17.4120   46.8170   12.7020 S.3   229  MET229     -0.1393
     21  CE        15.8280   46.1370   13.2120 C.3   229  MET229      0.0692
     22  N         13.1490   35.5410    9.1470 N.3   356  HIS356     -0.1241
     23  CA        14.2520   36.1490    9.8450 C.3   356  HIS356      0.1621
     24  C         15.3840   35.1040    9.8820 C.2   356  HIS356      0.2264
     25  O         15.1840   33.9820   10.3770 O.2   356  HIS356     -0.2867
     26  CB        13.8780   36.4650   11.2760 C.3   356  HIS356      0.0745
     27  CG        14.7140   37.5730   11.8180 C.ar  356  HIS356      0.0817
     28  ND1       16.0560   37.4550   12.0730 N.ar  356  HIS356     -0.2268
     29  CD2       14.3820   38.8420   12.1630 C.ar  356  HIS356      0.1154
     30  CE1       16.5220   38.6130   12.5500 C.ar  356  HIS356      0.1986
     31  NE2       15.5230   39.4690   12.6290 N.ar  356  HIS356     -0.2212
     32  N         13.9130   35.1430   18.6000 N.3   366  MET366     -0.1245
     33  CA        14.5870   35.8470   17.5220 C.3   366  MET366      0.1570
     34  C         15.8830   36.3840   18.1110 C.2   366  MET366      0.2261
     35  O         15.9340   36.4050   19.3420 O.2   366  MET366     -0.2867
     36  CB        13.6950   37.0190   17.0920 C.3   366  MET366      0.0387
     37  CG        14.2850   37.7920   15.9150 C.3   366  MET366      0.0595
     38  SD        13.2990   39.2670   15.5340 S.3   366  MET366     -0.1393
     39  CE        14.2020   40.5020   16.4040 C.3   366  MET366      0.0692
     40  N         18.0640   39.8270   17.5320 N.3   368  THR368     -0.1203
     41  CA        18.0110   41.0000   16.7300 C.3   368  THR368      0.1994
     42  C         19.0530   41.3020   15.6680 C.2   368  THR368      0.2617
     43  O         20.2800   41.3010   15.8440 O.2   368  THR368     -0.2717
     44  CB        17.9950   42.3070   17.5460 C.3   368  THR368      0.1784
     45  OG1       17.8050   43.3370   16.5410 O.3   368  THR368     -0.2211
     46  CG2       19.3000   42.6090   18.2500 C.3   368  THR368      0.0376
     47  N         18.5780   41.9110   14.5690 N.am  369  GLU369     -0.1979
     48  CA        19.4110   42.3090   13.4460 C.3   369  GLU369      0.1602
     49  C         20.5430   43.2700   13.7630 C.2   369  GLU369      0.2287
     50  O         21.5930   43.4240   13.1280 O.2   369  GLU369     -0.2864
     51  CB        18.4860   42.9430   12.4200 C.3   369  GLU369      0.0415
     52  CG        19.1770   43.2940   11.1150 C.3   369  GLU369      0.1163
     53  CD        18.2400   42.9630    9.9430 C.2   369  GLU369      0.3649
     54  OE1       18.2780   41.7460    9.5850 O.co2 369  GLU369     -0.2457
     55  OE2       17.5590   43.9420    9.5300 O.co2 369  GLU369     -0.2457
     56  N         17.0590   40.1540    4.4320 N.3   393  ARG393     -0.1245
     57  CA        16.6580   38.9650    5.1490 C.3   393  ARG393      0.1563
     58  C         16.5470   37.7360    4.2630 C.2   393  ARG393      0.2260
     59  O         17.0510   36.6750    4.6090 O.2   393  ARG393     -0.2867
     60  CB        15.2680   39.1100    5.7870 C.3   393  ARG393      0.0307
     61  CG        14.9640   40.5150    6.2840 C.3   393  ARG393      0.0489
     62  CD        15.5050   40.7510    7.6910 C.3   393  ARG393      0.2205
     63  NE        14.4460   40.9240    8.6510 N.pl3 393  ARG393     -0.0865
     64  CZ        14.1950   41.7790    9.6280 C.cat 393  ARG393      0.5346
     65  NH1       15.0140   42.7780    9.9350 N.pl3 393  ARG393      0.1354
     66  NH2       13.0840   41.6430   10.3660 N.pl3 393  ARG393      0.1354
     67  N          8.9010   34.8330   10.0610 N.3   494  HIS494     -0.1241
     68  CA         8.7280   35.9870   10.9230 C.3   494  HIS494      0.1621
     69  C          7.6500   37.0320   10.7030 C.2   494  HIS494      0.2264
     70  O          7.0980   37.6120   11.6460 O.2   494  HIS494     -0.2867
     71  CB        10.0450   36.7140   10.6370 C.3   494  HIS494      0.0745
     72  CG        10.3590   37.9490   11.3850 C.ar  494  HIS494      0.0817
     73  ND1       10.5670   37.9610   12.7680 N.ar  494  HIS494     -0.2268
     74  CD2       10.5750   39.1990   10.9230 C.ar  494  HIS494      0.1154
     75  CE1       10.8740   39.2080   13.0810 C.ar  494  HIS494      0.1986
     76  NE2       10.8790   40.0150   11.9950 N.ar  494  HIS494     -0.2212
     77  N          9.9140   43.2330    3.4990 N.3   535  ARG535     -0.1197
     78  CA         9.8430   44.3680    4.4430 C.3   535  ARG535      0.1779
     79  C         11.2300   44.7280    5.0050 C.2   535  ARG535      0.2305
     80  O         12.0730   43.9090    5.3930 O.2   535  ARG535     -0.2863
     81  CB         8.8200   44.1330    5.5440 C.2   535  ARG535     -0.0007
     82  CG         8.7510   45.1970    6.6260 C.2   535  ARG535      0.0176
     83  CD         7.8400   44.9210    7.8090 C.3   535  ARG535      0.2464
     84  NE         8.2320   43.7970    8.6270 N.pl3 535  ARG535     -0.0815
     85  CZ         9.2090   43.6400    9.5010 C.cat 535  ARG535      0.5349
     86  NH1       10.0610   44.6190    9.7520 N.pl3 535  ARG535      0.1354
     87  NH2        9.4040   42.5150   10.1850 N.pl3 535  ARG535      0.1354
     88  N         12.5190   47.6340   10.5480 N.3   538  GLY538     -0.1225
     89  CA        12.1920   48.9160   11.1710 C.3   538  GLY538      0.1811
     90  C         10.9450   49.5470   10.6350 C.2   538  GLY538      0.2280
     91  O         10.3550   50.4820   11.1690 O.2   538  GLY538     -0.2866
     92  N          7.8370   47.7850   10.0880 N.3   540  ALA540     -0.1245
     93  CA         6.6550   47.2930   10.7630 C.3   540  ALA540      0.1562
     94  C          6.1110   48.2750   11.8160 C.2   540  ALA540      0.2260
     95  O          4.9190   48.6590   11.7730 O.2   540  ALA540     -0.2867
     96  CB         6.9340   45.9390   11.4510 C.3   540  ALA540      0.0290
@<TRIPOS>BOND
     1    77    78    1
     2    58    59    2
     3    58    57    1
     4    56    57    1
     5    78    79    1
     6    78    81    1
     7    79    80    2
     8    57    60    1
     9    81    82    2
    10    60    61    1
    11    61    62    1
    12    82    83    1
    13    62    63    1
    14    83    84    1
    15    17    16    2
    16    84    85    2
    17    63    64    2
    18    16    15    1
    19    22    23    1
    20    85    86    1
    21    85    87    1
    22    55    53   ar
    23    54    53   ar
    24    64    65    1
    25    64    66    1
    26    23    24    1
    27    23    26    1
    28    24    25    2
    29    53    52    1
    30    67    68    1
    31    92    93    1
    32    15    18    1
    33    15    14    1
    34    18    19    1
    35    88    89    1
    36    90    91    2
    37    90    89    1
    38    71    68    1
    39    71    72    1
    40    69    68    1
    41    69    70    2
    42    93    96    1
    43    93    94    1
    44    74    72   ar
    45    74    76   ar
    46    52    51    1
    47    26    27    1
    48    72    73   ar
    49    19    20    1
    50    95    94    2
    51    27    28   ar
    52    27    29   ar
    53    76    75   ar
    54    28    30   ar
    55    29    31   ar
    56    51    48    1
    57    30    31   ar
    58    20    21    1
    59    73    75   ar
    60    50    49    2
    61    48    49    1
    62    48    47    1
    63    47    42   am
    64    13    12    2
    65    12    11    1
    66    38    37    1
    67    38    39    1
    68    42    43    2
    69    42    41    1
    70     9     8    2
    71    37    36    1
    72    11    10    1
    73     8    10   am
    74     8     7    1
    75    45    44    1
    76    41    40    1
    77    41    44    1
    78     7     6    1
    79    36    33    1
    80     6     3   am
    81    33    34    1
    82    33    32    1
    83    44    46    1
    84    34    35    2
    85     1     2    1
    86     3     2    1
    87     3     4    2
    88     5     2    1
