@<TRIPOS>MOLECULE
tmp/1d4jB00.pdb
 113 105 0 0 0
SMALL
GASTEIGER

@<TRIPOS>ATOM
      1  N          9.3090   34.5840   -1.3270 N.3     8  ARG8       -0.1245
      2  CA        10.0390   33.3270   -1.4820 C.3     8  ARG8        0.1563
      3  C         10.9490   33.3940   -2.7010 C.2     8  ARG8        0.2260
      4  O         10.5530   33.8950   -3.7490 O.2     8  ARG8       -0.2867
      5  CB         9.0700   32.1560   -1.6280 C.3     8  ARG8        0.0307
      6  CG         8.3730   31.7960   -0.3380 C.3     8  ARG8        0.0489
      7  CD         7.6050   30.4940   -0.4710 C.3     8  ARG8        0.2205
      8  NE         7.0580   30.0640    0.8110 N.pl3   8  ARG8       -0.0865
      9  CZ         6.2550   29.0160    0.9630 C.cat   8  ARG8        0.5346
     10  NH1        5.9040   28.2900   -0.0930 N.pl3   8  ARG8        0.1354
     11  NH2        5.8030   28.6950    2.1680 N.pl3   8  ARG8        0.1354
     12  N         12.3350   26.3710   -5.0980 N.3    23  LEU23      -0.1245
     13  CA        12.7810   27.3190   -4.0910 C.3    23  LEU23       0.1561
     14  C         14.2850   27.2050   -3.8530 C.2    23  LEU23       0.2260
     15  O         14.8030   26.1020   -3.6660 O.2    23  LEU23      -0.2867
     16  CB        12.0250   27.0160   -2.7940 C.3    23  LEU23       0.0270
     17  CG        12.1380   27.8820   -1.5440 C.3    23  LEU23       0.0019
     18  CD1       11.5040   29.2330   -1.7880 C.3    23  LEU23       0.0001
     19  CD2       11.4240   27.1660   -0.3960 C.3    23  LEU23       0.0001
     20  N         16.8580   27.1330   -1.5540 N.3    25  ASP25      -0.1239
     21  CA        16.8230   26.8770   -0.1230 C.3    25  ASP25       0.1674
     22  C         18.1700   26.5910    0.5420 C.2    25  ASP25       0.2266
     23  O         18.6700   25.4690    0.4780 O.2    25  ASP25      -0.2867
     24  CB        15.8810   25.6920    0.0940 C.3    25  ASP25       0.1410
     25  CG        15.4240   25.5590    1.5220 C.2    25  ASP25       0.3668
     26  OD1       16.0400   26.1820    2.4100 O.co2  25  ASP25      -0.2456
     27  OD2       14.4460   24.8210    1.7400 O.co2  25  ASP25      -0.2456
     28  N         18.7000   26.2870    3.5640 N.3    27  GLY27      -0.1210
     29  CA        18.5100   25.4280    4.7240 C.3    27  GLY27       0.1956
     30  C         18.4050   23.9530    4.3590 C.2    27  GLY27       0.2612
     31  O         18.3210   23.0850    5.2320 O.2    27  GLY27      -0.2717
     32  N         18.4100   23.6680    3.0620 N.am   28  ALA28      -0.1965
     33  CA        18.3170   22.2970    2.5730 C.3    28  ALA28       0.1728
     34  C         19.6890   21.8120    2.1320 C.2    28  ALA28       0.2616
     35  O         20.3090   22.4160    1.2600 O.2    28  ALA28      -0.2715
     36  CB        17.3520   22.2270    1.4000 C.3    28  ALA28       0.0334
     37  N         20.1590   20.7200    2.7280 N.am   29  ASP29      -0.1957
     38  CA        21.4650   20.1770    2.3670 C.3    29  ASP29       0.1840
     39  C         21.4440   19.6580    0.9410 C.2    29  ASP29       0.2622
     40  O         22.4150   19.8020    0.2020 O.2    29  ASP29      -0.2715
     41  CB        21.8550   19.0020    3.2650 C.3    29  ASP29       0.1450
     42  CG        22.0580   19.3960    4.7080 C.2    29  ASP29       0.3671
     43  OD1       22.3880   20.5660    4.9870 O.co2  29  ASP29      -0.2456
     44  OD2       21.9020   18.5090    5.5680 O.co2  29  ASP29      -0.2456
     45  N         20.3280   19.0320    0.5780 N.am   30  ASP30      -0.1971
     46  CA        20.1700   18.4410   -0.7390 C.3    30  ASP30       0.1709
     47  C         19.0140   19.0460   -1.5160 C.2    30  ASP30       0.2293
     48  O         18.2670   19.8850   -1.0090 O.2    30  ASP30      -0.2864
     49  CB        19.9400   16.9340   -0.6040 C.3    30  ASP30       0.1436
     50  CG        20.9960   16.2550    0.2500 C.2    30  ASP30       0.3671
     51  OD1       22.1890   16.4010   -0.0720 O.co2  30  ASP30      -0.2456
     52  OD2       20.6290   15.5720    1.2380 O.co2  30  ASP30      -0.2456
     53  N         15.5240   18.3300   -3.4850 N.3    32  VAL32      -0.1245
     54  CA        14.4430   17.3600   -3.5330 C.3    32  VAL32       0.1561
     55  C         13.2820   17.9250   -4.3380 C.2    32  VAL32       0.2260
     56  O         12.8470   19.0600   -4.1300 O.2    32  VAL32      -0.2867
     57  CB        13.9890   16.9540   -2.1020 C.3    32  VAL32       0.0252
     58  CG1       13.5270   18.1650   -1.3290 C.3    32  VAL32       0.0019
     59  CG2       12.8850   15.8970   -2.1810 C.3    32  VAL32       0.0019
     60  N         15.5940   11.7950    4.5290 N.3    47  ILE47      -0.1231
     61  CA        15.9890   13.1540    4.8550 C.3    47  ILE47       0.1692
     62  C         15.0900   13.6460    5.9740 C.2    47  ILE47       0.2593
     63  O         13.9000   13.3340    6.0060 O.2    47  ILE47      -0.2718
     64  CB        15.8910   14.0960    3.6310 C.3    47  ILE47       0.0266
     65  CG1       14.4630   14.1260    3.0860 C.3    47  ILE47       0.0019
     66  CG2       16.8710   13.6390    2.5620 C.3    47  ILE47       0.0020
     67  CD1       14.2950   15.0220    1.8640 C.3    47  ILE47       0.0001
     68  N         15.6700   14.3930    6.9050 N.am   48  GLY48      -0.1942
     69  CA        14.8950   14.9010    8.0190 C.3    48  GLY48       0.2014
     70  C         14.6610   16.3940    7.9330 C.2    48  GLY48       0.2639
     71  O         15.5860   17.1600    7.6790 O.2    48  GLY48      -0.2714
     72  N         13.4130   16.8010    8.1360 N.am   49  GLY49      -0.1939
     73  CA        13.0620   18.2080    8.0960 C.3    49  GLY49       0.2014
     74  C         12.4670   18.6040    9.4340 C.2    49  GLY49       0.2638
     75  O         12.6540   17.8960   10.4250 O.2    49  GLY49      -0.2714
     76  N         11.7390   19.7150    9.4770 N.am   50  ILE50      -0.1977
     77  CA        11.1520   20.1670   10.7360 C.3    50  ILE50       0.1596
     78  C         10.0360   19.2690   11.2610 C.2    50  ILE50       0.2287
     79  O          9.8250   19.1900   12.4710 O.2    50  ILE50      -0.2864
     80  CB        10.5760   21.5990   10.6310 C.3    50  ILE50       0.0276
     81  CG1        9.4360   21.6310    9.6150 C.3    50  ILE50       0.0022
     82  CG2       11.6740   22.5810   10.2610 C.3    50  ILE50       0.0022
     83  CD1        8.6650   22.9340    9.6130 C.3    50  ILE50       0.0001
     84  N         16.9530   14.3370   -5.4450 N.3    76  LEU76      -0.1245
     85  CA        16.1190   13.4350   -4.6680 C.3    76  LEU76       0.1561
     86  C         14.6800   13.6670   -5.1010 C.2    76  LEU76       0.2260
     87  O         14.2910   14.7970   -5.3990 O.2    76  LEU76      -0.2867
     88  CB        16.2640   13.7370   -3.1780 C.3    76  LEU76       0.0270
     89  CG        17.7020   13.7350   -2.6670 C.3    76  LEU76       0.0019
     90  CD1       17.7260   14.1410   -1.1930 C.3    76  LEU76       0.0001
     91  CD2       18.3130   12.3560   -2.8800 C.3    76  LEU76       0.0001
     92  N          6.7410   19.0260   -0.0320 N.3    81  PRO81      -0.2102
     93  CA         5.6660   20.0020   -0.2370 C.3    81  PRO81       0.1504
     94  C          5.9180   20.9460   -1.4040 C.2    81  PRO81       0.2575
     95  O          4.9800   21.4570   -2.0150 O.2    81  PRO81      -0.2718
     96  CB         5.6250   20.7500    1.0920 C.3    81  PRO81       0.0282
     97  CG         6.1110   19.7470    2.0640 C.3    81  PRO81       0.0208
     98  CD         7.2710   19.1290    1.3370 C.3    81  PRO81       0.0893
     99  N          7.1920   21.1760   -1.7080 N.am   82  VAL82      -0.1980
    100  CA         7.5780   22.0690   -2.7920 C.3    82  VAL82       0.1595
    101  C          8.9200   21.6330   -3.3590 C.2    82  VAL82       0.2287
    102  O          9.6720   20.9110   -2.6960 O.2    82  VAL82      -0.2864
    103  CB         7.7310   23.5270   -2.2930 C.3    82  VAL82       0.0276
    104  CG1        6.3820   24.0940   -1.8720 C.3    82  VAL82       0.0022
    105  CG2        8.7060   23.5670   -1.1280 C.3    82  VAL82       0.0022
    106  N         12.6000   21.8950   -4.0210 N.3    84  ILE84      -0.1245
    107  CA        13.6680   22.5400   -3.2740 C.3    84  ILE84       0.1561
    108  C         15.0480   22.3630   -3.8960 C.2    84  ILE84       0.2260
    109  O         15.4930   21.2390   -4.1250 O.2    84  ILE84      -0.2867
    110  CB        13.7290   21.9640   -1.8340 C.3    84  ILE84       0.0252
    111  CG1       12.4690   22.3570   -1.0610 C.3    84  ILE84       0.0019
    112  CG2       14.9810   22.4460   -1.1120 C.3    84  ILE84       0.0019
    113  CD1       12.3190   21.6030    0.2500 C.3    84  ILE84       0.0001
@<TRIPOS>BOND
     1    84    85    1
     2    87    86    2
     3    86    85    1
     4    12    13    1
     5    85    88    1
     6    55    56    2
     7    55    54    1
     8   109   108    2
     9    13    14    1
    10    13    16    1
    11   106   107    1
    12   108   107    1
    13    14    15    2
    14     4     3    2
    15    54    53    1
    16    54    57    1
    17   101   100    1
    18   101   102    2
    19   107   110    1
    20    88    89    1
    21    91    89    1
    22    16    17    1
    23   100   103    1
    24   100    99    1
    25     3     2    1
    26    89    90    1
    27   103   104    1
    28   103   105    1
    29    59    57    1
    30    57    58    1
    31    95    94    2
    32   110   112    1
    33   110   111    1
    34    18    17    1
    35    99    94   am
    36     5     2    1
    37     5     6    1
    38    20    21    1
    39    17    19    1
    40    47    48    2
    41    47    46    1
    42     2     1    1
    43    94    93    1
    44   111   113    1
    45    46    49    1
    46    46    45    1
    47    49    50    1
    48     7     6    1
    49     7     8    1
    50    93    92    1
    51    93    96    1
    52    21    24    1
    53    21    22    1
    54    10     9    1
    55    51    50   ar
    56    92    98    1
    57    24    25    1
    58    40    39    2
    59    50    52   ar
    60    23    22    2
    61    45    39   am
    62     8     9    2
    63    39    38    1
    64     9    11    1
    65    96    97    1
    66    35    34    2
    67    98    97    1
    68    36    33    1
    69    25    27   ar
    70    25    26   ar
    71    67    65    1
    72    34    33    1
    73    34    37   am
    74    38    37    1
    75    38    41    1
    76    66    64    1
    77    33    32    1
    78    32    30   am
    79    65    64    1
    80    41    42    1
    81    28    29    1
    82    64    61    1
    83    30    29    1
    84    30    31    2
    85    60    61    1
    86    42    43   ar
    87    42    44   ar
    88    61    62    1
    89    62    63    2
    90    62    68   am
    91    68    69    1
    92    71    70    2
    93    70    69    1
    94    70    72   am
    95    73    72    1
    96    73    74    1
    97    74    76   am
    98    74    75    2
    99    76    77    1
   100    83    81    1
   101    81    80    1
   102    82    80    1
   103    80    77    1
   104    77    78    1
   105    78    79    2
