@<TRIPOS>MOLECULE
tmp/1d4kA00.pdb
 72 67 0 0 0
SMALL
GASTEIGER

@<TRIPOS>ATOM
      1  N          0.6140    2.2040   21.2570 N.3    25  ASP25      -0.1239
      2  CA         1.7880    2.2340   20.3810 C.3    25  ASP25       0.1674
      3  C          2.2190    3.6370   19.9610 C.2    25  ASP25       0.2266
      4  O          1.5810    4.2590   19.1160 O.2    25  ASP25      -0.2867
      5  CB         1.4440    1.4010   19.1430 C.3    25  ASP25       0.1410
      6  CG         2.6560    0.9140   18.3990 C.2    25  ASP25       0.3668
      7  OD1        3.7310    1.5400   18.4940 O.co2  25  ASP25      -0.2456
      8  OD2        2.5180   -0.1090   17.7040 O.co2  25  ASP25      -0.2456
      9  N          4.8930    4.2940   18.3190 N.3    27  GLY27      -0.1210
     10  CA         5.5750    4.1930   17.0380 C.3    27  GLY27       0.1956
     11  C          4.6350    4.0320   15.8560 C.2    27  GLY27       0.2612
     12  O          5.0770    3.9190   14.7110 O.2    27  GLY27      -0.2717
     13  N          3.3370    3.9870   16.1390 N.am   28  ALA28      -0.1965
     14  CA         2.3180    3.8410   15.0980 C.3    28  ALA28       0.1728
     15  C          1.6520    5.1890   14.8540 C.2    28  ALA28       0.2616
     16  O          1.1480    5.8170   15.7900 O.2    28  ALA28      -0.2715
     17  CB         1.2830    2.8190   15.5240 C.3    28  ALA28       0.0334
     18  N          1.6700    5.6430   13.6030 N.am   29  ASP29      -0.1957
     19  CA         1.0440    6.9260   13.2440 C.3    29  ASP29       0.1840
     20  C         -0.4660    6.8340   13.4140 C.2    29  ASP29       0.2622
     21  O         -1.1080    7.7740   13.8820 O.2    29  ASP29      -0.2715
     22  CB         1.3280    7.2900   11.7810 C.3    29  ASP29       0.1450
     23  CG         2.8030    7.4590   11.4860 C.2    29  ASP29       0.3671
     24  OD1        3.5390    8.0100   12.3310 O.co2  29  ASP29      -0.2456
     25  OD2        3.2220    7.0430   10.3880 O.co2  29  ASP29      -0.2456
     26  N         -1.0190    5.6870   13.0310 N.am   30  ASP30      -0.1971
     27  CA        -2.4670    5.4640   13.0960 C.3    30  ASP30       0.1709
     28  C         -2.8970    4.3100   13.9870 C.2    30  ASP30       0.2293
     29  O         -2.0760    3.5420   14.4950 O.2    30  ASP30      -0.2864
     30  CB        -3.0200    5.2590   11.6850 C.3    30  ASP30       0.1436
     31  CG        -2.6610    6.3980   10.7500 C.2    30  ASP30       0.3671
     32  OD1       -3.1120    7.5420   10.9960 O.co2  30  ASP30      -0.2456
     33  OD2       -1.9150    6.1490    9.7780 O.co2  30  ASP30      -0.2456
     34  N         -4.9540    0.8540   14.3150 N.3    32  VAL32      -0.1245
     35  CA        -5.4010   -0.2990   13.5150 C.3    32  VAL32       0.1561
     36  C         -5.9590   -1.3910   14.4290 C.2    32  VAL32       0.2260
     37  O         -5.2800   -1.8700   15.3370 O.2    32  VAL32      -0.2867
     38  CB        -4.2410   -0.9010   12.6880 C.3    32  VAL32       0.0252
     39  CG1       -4.7730   -1.9320   11.7010 C.3    32  VAL32       0.0019
     40  CG2       -3.4950    0.1890   11.9560 C.3    32  VAL32       0.0019
     41  N         -1.5760    0.7040    4.4150 N.3    47  ILE47      -0.1231
     42  CA        -0.6050    1.2100    5.3970 C.3    47  ILE47       0.1692
     43  C          0.6020    0.2840    5.4150 C.2    47  ILE47       0.2593
     44  O          0.4920   -0.9050    5.1000 O.2    47  ILE47      -0.2718
     45  CB        -1.1920    1.3050    6.8310 C.3    47  ILE47       0.0266
     46  CG1       -1.6810   -0.0660    7.3050 C.3    47  ILE47       0.0019
     47  CG2       -2.3120    2.3310    6.8760 C.3    47  ILE47       0.0020
     48  CD1       -2.0950   -0.1000    8.7580 C.3    47  ILE47       0.0001
     49  N          1.7530    0.8340    5.7760 N.am   48  GLY48      -0.1942
     50  CA         2.9590    0.0350    5.8230 C.3    48  GLY48       0.2014
     51  C          3.6720    0.1180    7.1530 C.2    48  GLY48       0.2639
     52  O          3.6610    1.1510    7.8170 O.2    48  GLY48      -0.2714
     53  N          4.2790   -0.9930    7.5440 N.am   49  GLY49      -0.1939
     54  CA         5.0200   -1.0450    8.7890 C.3    49  GLY49       0.2014
     55  C          6.2630   -1.8750    8.5460 C.2    49  GLY49       0.2638
     56  O          6.8100   -1.8570    7.4380 O.2    49  GLY49      -0.2714
     57  N          6.7320   -2.5750    9.5740 N.am   50  ILE50      -0.1977
     58  CA         7.9140   -3.4370    9.4250 C.3    50  ILE50       0.1596
     59  C          7.4630   -4.8220    8.9820 C.2    50  ILE50       0.2287
     60  O          6.7190   -5.5070    9.6870 O.2    50  ILE50      -0.2864
     61  CB         8.7550   -3.5130   10.7270 C.3    50  ILE50       0.0276
     62  CG1        9.6690   -2.2870   10.8110 C.3    50  ILE50       0.0022
     63  CG2        9.5750   -4.8030   10.7740 C.3    50  ILE50       0.0022
     64  CD1       10.7310   -2.3790   11.8720 C.3    50  ILE50       0.0001
     65  N         -4.0600   -1.9450   17.7880 N.3    83  ILE83      -0.1245
     66  CA        -3.0970   -0.8660   18.0400 C.3    83  ILE83       0.1561
     67  C         -3.7240    0.5160   18.1340 C.2    83  ILE83       0.2260
     68  O         -4.5390    0.8980   17.2980 O.2    83  ILE83      -0.2867
     69  CB        -2.0190   -0.8530   16.9280 C.3    83  ILE83       0.0252
     70  CG1       -1.1670   -2.1190   17.0140 C.3    83  ILE83       0.0019
     71  CG2       -1.1500    0.3960   17.0130 C.3    83  ILE83       0.0019
     72  CD1       -0.3010   -2.3420   15.8040 C.3    83  ILE83       0.0001
@<TRIPOS>BOND
     1    41    42    1
     2    44    43    2
     3    42    43    1
     4    42    45    1
     5    43    49   am
     6    49    50    1
     7    50    51    1
     8    45    47    1
     9    45    46    1
    10    51    53   am
    11    51    52    2
    12    46    48    1
    13    56    55    2
    14    53    54    1
    15    55    54    1
    16    55    57   am
    17    59    58    1
    18    59    60    2
    19    58    57    1
    20    58    61    1
    21    33    31   ar
    22    25    23   ar
    23    61    63    1
    24    61    62    1
    25    31    32   ar
    26    31    30    1
    27    62    64    1
    28    23    22    1
    29    23    24   ar
    30    30    27    1
    31    39    38    1
    32    22    19    1
    33    40    38    1
    34    38    35    1
    35    26    27    1
    36    26    20   am
    37    27    28    1
    38    19    20    1
    39    19    18    1
    40    20    21    2
    41    35    34    1
    42    35    36    1
    43    18    15   am
    44    28    29    2
    45    36    37    2
    46    12    11    2
    47    15    14    1
    48    15    16    2
    49    14    17    1
    50    14    13    1
    51    72    70    1
    52    11    13   am
    53    11    10    1
    54    69    71    1
    55    69    70    1
    56    69    66    1
    57    10     9    1
    58    68    67    2
    59     8     6   ar
    60    65    66    1
    61    66    67    1
    62     6     7   ar
    63     6     5    1
    64     4     3    2
    65     5     2    1
    66     3     2    1
    67     2     1    1
