@<TRIPOS>MOLECULE
tmp/1d4lA00.pdb
 116 109 0 0 0
SMALL
GASTEIGER

@<TRIPOS>ATOM
      1  N          4.0520   -5.3240   27.9410 N.3     8  ARG8       -0.1245
      2  CA         3.4660   -4.5970   26.7950 C.3     8  ARG8        0.1563
      3  C          2.3650   -3.7060   27.3510 C.2     8  ARG8        0.2260
      4  O          1.6110   -4.1220   28.2300 O.2     8  ARG8       -0.2867
      5  CB         2.8540   -5.5640   25.7850 C.3     8  ARG8        0.0307
      6  CG         3.8110   -6.0700   24.7400 C.3     8  ARG8        0.0489
      7  CD         3.1470   -7.1810   23.9840 C.3     8  ARG8        0.2205
      8  NE         3.4580   -7.1900   22.5530 N.pl3   8  ARG8       -0.0865
      9  CZ         2.5740   -7.5330   21.6170 C.cat   8  ARG8        0.5346
     10  NH1        1.3360   -7.8900   21.9630 N.pl3   8  ARG8        0.1354
     11  NH2        2.9280   -7.5360   20.3380 N.pl3   8  ARG8        0.1354
     12  N         -2.7780   -2.2090   22.0890 N.3    23  LEU23      -0.1245
     13  CA        -1.4320   -1.7790   22.4850 C.3    23  LEU23       0.1561
     14  C         -1.2500   -0.2800   22.2350 C.2    23  LEU23       0.2260
     15  O         -1.5170    0.1910   21.1400 O.2    23  LEU23      -0.2867
     16  CB        -0.4110   -2.5690   21.6520 C.3    23  LEU23       0.0270
     17  CG         1.0980   -2.3870   21.8430 C.3    23  LEU23       0.0019
     18  CD1        1.5380   -2.9470   23.1870 C.3    23  LEU23       0.0001
     19  CD2        1.8010   -3.1520   20.7190 C.3    23  LEU23       0.0001
     20  N          0.7730    2.3630   21.2170 N.3    25  ASP25      -0.1239
     21  CA         1.9780    2.3320   20.3890 C.3    25  ASP25       0.1674
     22  C          2.4390    3.7030   19.9070 C.2    25  ASP25       0.2266
     23  O          1.9100    4.2180   18.9310 O.2    25  ASP25      -0.2867
     24  CB         1.6560    1.3980   19.2080 C.3    25  ASP25       0.1410
     25  CG         2.8590    1.0780   18.3300 C.2    25  ASP25       0.3668
     26  OD1        3.9770    1.5860   18.5460 O.co2  25  ASP25      -0.2456
     27  OD2        2.6650    0.2870   17.3940 O.co2  25  ASP25      -0.2456
     28  N          5.0590    4.3470   18.3860 N.3    27  GLY27      -0.1210
     29  CA         5.7240    4.2280   17.1030 C.3    27  GLY27       0.1956
     30  C          4.7640    4.0810   15.9250 C.2    27  GLY27       0.2612
     31  O          5.2050    3.8980   14.7870 O.2    27  GLY27      -0.2717
     32  N          3.4580    4.1740   16.1810 N.am   28  ALA28      -0.1965
     33  CA         2.4530    4.0330   15.1080 C.3    28  ALA28       0.1728
     34  C          1.8070    5.3690   14.7930 C.2    28  ALA28       0.2616
     35  O          1.3090    6.0470   15.6990 O.2    28  ALA28      -0.2715
     36  CB         1.3880    3.0280   15.5150 C.3    28  ALA28       0.0334
     37  N          1.8130    5.7560   13.5200 N.am   29  ASP29      -0.1957
     38  CA         1.1890    7.0320   13.1410 C.3    29  ASP29       0.1840
     39  C         -0.3140    6.9340   13.2890 C.2    29  ASP29       0.2622
     40  O         -0.9680    7.8640   13.7600 O.2    29  ASP29      -0.2715
     41  CB         1.4640    7.3830   11.6740 C.3    29  ASP29       0.1450
     42  CG         2.8980    7.7800   11.4070 C.2    29  ASP29       0.3671
     43  OD1        3.6830    7.9990   12.3580 O.co2  29  ASP29      -0.2456
     44  OD2        3.2350    7.8880   10.2130 O.co2  29  ASP29      -0.2456
     45  N         -0.8280    5.7630   12.9300 N.am   30  ASP30      -0.1971
     46  CA        -2.2640    5.4950   12.9120 C.3    30  ASP30       0.1709
     47  C         -2.7100    4.3870   13.8360 C.2    30  ASP30       0.2293
     48  O         -1.8960    3.6180   14.3440 O.2    30  ASP30      -0.2864
     49  CB        -2.6690    5.1070   11.4870 C.3    30  ASP30       0.1436
     50  CG        -2.2110    6.1210   10.4490 C.2    30  ASP30       0.3671
     51  OD1       -2.6850    7.2680   10.5100 O.co2  30  ASP30      -0.2456
     52  OD2       -1.3620    5.7660    9.5970 O.co2  30  ASP30      -0.2456
     53  N         -4.7740    0.9530   14.1020 N.3    32  VAL32      -0.1245
     54  CA        -5.1570   -0.2030   13.2710 C.3    32  VAL32       0.1561
     55  C         -5.7250   -1.3010   14.1650 C.2    32  VAL32       0.2260
     56  O         -5.0570   -1.7860   15.0770 O.2    32  VAL32      -0.2867
     57  CB        -3.9550   -0.7390   12.4630 C.3    32  VAL32       0.0252
     58  CG1       -4.4430   -1.7160   11.3760 C.3    32  VAL32       0.0019
     59  CG2       -3.2030    0.4130   11.8190 C.3    32  VAL32       0.0019
     60  N         -1.4820    0.6680    4.4090 N.3    47  ILE47      -0.1231
     61  CA        -0.5550    1.1940    5.4250 C.3    47  ILE47       0.1692
     62  C          0.6700    0.3100    5.4720 C.2    47  ILE47       0.2593
     63  O          0.5940   -0.8860    5.1870 O.2    47  ILE47      -0.2718
     64  CB        -1.1730    1.2380    6.8230 C.3    47  ILE47       0.0266
     65  CG1       -1.5840   -0.1630    7.2680 C.3    47  ILE47       0.0019
     66  CG2       -2.3700    2.1520    6.8240 C.3    47  ILE47       0.0020
     67  CD1       -2.0410   -0.2000    8.6930 C.3    47  ILE47       0.0001
     68  N          1.7850    0.9060    5.8660 N.am   48  GLY48      -0.1942
     69  CA         3.0320    0.1840    5.9210 C.3    48  GLY48       0.2014
     70  C          3.5850   -0.0210    7.3070 C.2    48  GLY48       0.2639
     71  O          3.2340    0.6620    8.2640 O.2    48  GLY48      -0.2714
     72  N          4.4960   -0.9690    7.4040 N.am   49  GLY49      -0.1939
     73  CA         5.0950   -1.2630    8.6810 C.3    49  GLY49       0.2014
     74  C          6.4560   -1.8420    8.4300 C.2    49  GLY49       0.2638
     75  O          7.0750   -1.5290    7.4170 O.2    49  GLY49      -0.2714
     76  N          6.8800   -2.7450    9.3070 N.am   50  ILE50      -0.1977
     77  CA         8.2110   -3.3600    9.1910 C.3    50  ILE50       0.1596
     78  C          8.3410   -4.3420    8.0240 C.2    50  ILE50       0.2287
     79  O          9.3170   -4.2730    7.2740 O.2    50  ILE50      -0.2864
     80  CB         8.6550   -4.0230   10.5330 C.3    50  ILE50       0.0276
     81  CG1       10.1800   -4.0260   10.6520 C.3    50  ILE50       0.0022
     82  CG2        8.1450   -5.4490   10.6340 C.3    50  ILE50       0.0022
     83  CD1       10.7300   -2.9660   11.5830 C.3    50  ILE50       0.0001
     84  N          3.5650   -3.5320    3.1680 N.3    53  PHE53      -0.1241
     85  CA         2.2470   -2.8860    3.2020 C.3    53  PHE53       0.1605
     86  C          1.0940   -3.8670    3.2650 C.2    53  PHE53       0.2264
     87  O          1.1750   -4.9670    2.7310 O.2    53  PHE53      -0.2867
     88  CB         2.0530   -2.0110    1.9600 C.3    53  PHE53       0.0534
     89  CG         2.7560   -0.6960    2.0290 C.ar   53  PHE53      -0.0203
     90  CD1        4.1320   -0.6120    1.8360 C.ar   53  PHE53      -0.0042
     91  CD2        2.0490    0.4640    2.3240 C.ar   53  PHE53      -0.0042
     92  CE1        4.7930    0.6050    1.9420 C.ar   53  PHE53      -0.0003
     93  CE2        2.7010    1.6850    2.4290 C.ar   53  PHE53      -0.0003
     94  CZ         4.0810    1.7500    2.2390 C.ar   53  PHE53      -0.0000
     95  N         -1.4350   -8.0390   13.3900 N.3    80  PRO80      -0.2102
     96  CA        -1.1440   -9.0520   14.4130 C.3    80  PRO80       0.1504
     97  C         -1.6680   -8.7250   15.8100 C.2    80  PRO80       0.2575
     98  O         -1.9130   -9.6310   16.6080 O.2    80  PRO80      -0.2718
     99  CB         0.3810   -9.1590   14.3850 C.3    80  PRO80       0.0282
    100  CG         0.8420   -7.9500   13.6150 C.3    80  PRO80       0.0208
    101  CD        -0.2250   -7.6970   12.6190 C.3    80  PRO80       0.0893
    102  N         -1.8910   -7.4370   16.0780 N.am   81  VAL81      -0.1980
    103  CA        -2.3950   -6.9670   17.3850 C.3    81  VAL81       0.1595
    104  C         -3.1350   -5.6300   17.1950 C.2    81  VAL81       0.2287
    105  O         -2.8180   -4.8810   16.2680 O.2    81  VAL81      -0.2864
    106  CB        -1.2030   -6.7530   18.3820 C.3    81  VAL81       0.0276
    107  CG1       -0.1940   -5.7880   17.7880 C.3    81  VAL81       0.0022
    108  CG2       -1.6920   -6.2420   19.7390 C.3    81  VAL81       0.0022
    109  N         -3.8070   -1.9230   17.6370 N.3    83  ILE83      -0.1245
    110  CA        -2.8400   -0.8470   17.9130 C.3    83  ILE83       0.1561
    111  C         -3.4830    0.5360   18.0600 C.2    83  ILE83       0.2260
    112  O         -4.2480    0.9460   17.2000 O.2    83  ILE83      -0.2867
    113  CB        -1.7830   -0.7760   16.7790 C.3    83  ILE83       0.0252
    114  CG1       -0.9930   -2.0850   16.7060 C.3    83  ILE83       0.0019
    115  CG2       -0.8320    0.3930   16.9940 C.3    83  ILE83       0.0019
    116  CD1       -0.0940   -2.1750   15.5030 C.3    83  ILE83       0.0001
@<TRIPOS>BOND
     1    90    92   ar
     2    90    89   ar
     3    92    94   ar
     4    88    89    1
     5    88    85    1
     6    89    91   ar
     7    94    93   ar
     8    91    93   ar
     9    87    86    2
    10    84    85    1
    11    85    86    1
    12    60    61    1
    13    63    62    2
    14    61    62    1
    15    61    64    1
    16    62    68   am
    17    68    69    1
    18    69    70    1
    19    64    66    1
    20    64    65    1
    21    65    67    1
    22    79    78    2
    23    70    72   am
    24    70    71    2
    25    72    73    1
    26    75    74    2
    27    78    77    1
    28    74    73    1
    29    74    76   am
    30    77    76    1
    31    77    80    1
    32    52    50   ar
    33    44    42   ar
    34    50    51   ar
    35    50    49    1
    36    80    82    1
    37    80    81    1
    38    81    83    1
    39    58    57    1
    40    42    41    1
    41    42    43   ar
    42    49    46    1
    43    41    38    1
    44    59    57    1
    45    57    54    1
    46   101    95    1
    47   101   100    1
    48    46    45    1
    49    46    47    1
    50    45    39   am
    51    38    39    1
    52    38    37    1
    53    54    53    1
    54    54    55    1
    55    39    40    2
    56    95    96    1
    57    37    34   am
    58   100    99    1
    59    47    48    2
    60    55    56    2
    61    99    96    1
    62    96    97    1
    63    31    30    2
    64    34    33    1
    65    34    35    2
    66    33    36    1
    67    33    32    1
    68   116   114    1
    69    97   102   am
    70    97    98    2
    71    30    32   am
    72    30    29    1
    73   102   103    1
    74   105   104    2
    75   114   113    1
    76   113   115    1
    77   113   110    1
    78    29    28    1
    79   104   103    1
    80   112   111    2
    81   103   106    1
    82    27    25   ar
    83   109   110    1
    84   107   106    1
    85   110   111    1
    86    25    26   ar
    87    25    24    1
    88   106   108    1
    89    23    22    2
    90    24    21    1
    91    22    21    1
    92    11     9    1
    93    21    20    1
    94    19    17    1
    95    15    14    2
    96     9    10    1
    97     9     8    2
    98    16    17    1
    99    16    13    1
   100    17    18    1
   101    12    13    1
   102    14    13    1
   103     8     7    1
   104     7     6    1
   105     6     5    1
   106     5     2    1
   107     2     3    1
   108     2     1    1
   109     3     4    2
