@<TRIPOS>MOLECULE
tmp/1d4mA01.pdb
 158 156 0 0 0
SMALL
GASTEIGER

@<TRIPOS>ATOM
      1  N        -55.1700    3.5800  124.7980 N.3    96  ASN96      -0.1225
      2  CA       -55.9600    4.6600  124.2040 C.3    96  ASN96       0.1785
      3  C        -55.1320    5.9570  124.2340 C.2    96  ASN96       0.2598
      4  O        -54.0960    6.0150  124.8910 O.2    96  ASN96      -0.2718
      5  CB       -57.2720    4.8470  124.9420 C.3    96  ASN96       0.1169
      6  CG       -57.0970    5.5460  126.2650 C.2    96  ASN96       0.2627
      7  OD1      -57.1630    6.7760  126.3460 O.2    96  ASN96      -0.2716
      8  ND2      -56.8570    4.7700  127.3140 N.am   96  ASN96      -0.0877
      9  N        -55.5970    7.0070  123.5690 N.am   97  THR97      -0.1939
     10  CA       -54.8600    8.2750  123.5170 C.3    97  THR97       0.2028
     11  C        -55.7190    9.4270  124.0420 C.2    97  THR97       0.2642
     12  O        -55.4680   10.5900  123.7350 O.2    97  THR97      -0.2714
     13  CB       -54.4610    8.6210  122.0510 C.3    97  THR97       0.1808
     14  OG1      -55.6370    8.6670  121.2330 O.3    97  THR97      -0.2208
     15  CG2      -53.5150    7.6040  121.4780 C.3    97  THR97       0.0379
     16  N        -56.6920    9.1150  124.8880 N.am   98  LYS98      -0.1977
     17  CA       -57.6070   10.1350  125.3770 C.3    98  LYS98       0.1596
     18  C        -57.4670   10.5870  126.8170 C.2    98  LYS98       0.2287
     19  O        -58.1980   11.4780  127.2310 O.2    98  LYS98      -0.2864
     20  CB       -59.0410    9.6570  125.1710 C.3    98  LYS98       0.0298
     21  CG       -59.3760    9.2040  123.7680 C.3    98  LYS98       0.0038
     22  CD       -59.4000   10.3670  122.7950 C.3    98  LYS98       0.0206
     23  CE       -60.0360    9.9400  121.4780 C.3    98  LYS98       0.1093
     24  NZ       -60.1810   11.0310  120.4770 N.3    98  LYS98      -0.1314
     25  N        -56.6450   -7.8360  121.8520 N.3   149  PRO149     -0.2116
     26  CA       -58.0130   -8.1530  122.2900 C.3   149  PRO149      0.1372
     27  C        -58.4130   -9.6330  122.2620 C.2   149  PRO149      0.2244
     28  O        -58.3220  -10.3100  121.2280 O.2   149  PRO149     -0.2868
     29  CB       -58.8850   -7.2750  121.3790 C.3   149  PRO149      0.0268
     30  CG       -58.0180   -7.0070  120.1930 C.3   149  PRO149      0.0207
     31  CD       -56.6500   -6.8240  120.7800 C.3   149  PRO149      0.0892
     32  N        -51.9670   -0.5760  112.9350 N.3   186  ILE186     -0.1231
     33  CA       -52.7510   -1.7760  113.2370 C.3   186  ILE186      0.1692
     34  C        -54.2760   -1.7420  113.2090 C.2   186  ILE186      0.2593
     35  O        -54.9110   -2.7020  113.6400 O.2   186  ILE186     -0.2718
     36  CB       -52.3520   -2.3610  114.5990 C.3   186  ILE186      0.0266
     37  CG1      -52.6040   -1.3330  115.7030 C.3   186  ILE186      0.0019
     38  CG2      -50.9010   -2.8230  114.5720 C.3   186  ILE186      0.0020
     39  CD1      -52.4320   -1.8840  117.0960 C.3   186  ILE186      0.0001
     40  N        -54.8700   -0.6540  112.7420 N.am  187  SER187     -0.1938
     41  CA       -56.3240   -0.5700  112.6900 C.3   187  SER187      0.2055
     42  C        -56.9590   -1.6220  111.7680 C.2   187  SER187      0.2643
     43  O        -56.2990   -2.1370  110.8610 O.2   187  SER187     -0.2714
     44  CB       -56.7280    0.8160  112.2020 C.3   187  SER187      0.2130
     45  OG       -58.1360    0.9520  112.1130 O.3   187  SER187     -0.2179
     46  N        -58.2270   -1.9590  112.0190 N.am  188  ILE188     -0.1963
     47  CA       -58.9430   -2.8920  111.1470 C.3   188  ILE188      0.1727
     48  C        -59.5840   -2.0380  110.0340 C.2   188  ILE188      0.2616
     49  O        -60.1560   -2.5510  109.0650 O.2   188  ILE188     -0.2715
     50  CB       -60.0570   -3.7240  111.8760 C.3   188  ILE188      0.0290
     51  CG1      -61.1330   -2.8150  112.4740 C.3   188  ILE188      0.0022
     52  CG2      -59.4580   -4.6490  112.9140 C.3   188  ILE188      0.0023
     53  CD1      -62.2370   -3.5630  113.2030 C.3   188  ILE188      0.0001
     54  N        -59.5380   -0.7230  110.2180 N.am  189  GLY189     -0.1955
     55  CA       -60.0730    0.1940  109.2290 C.3   189  GLY189      0.1869
     56  C        -58.9180    0.7430  108.4130 C.2   189  GLY189      0.2309
     57  O        -57.7580    0.3690  108.6460 O.2   189  GLY189     -0.2863
     58  N        -57.9810    3.8760  108.3870 N.3   191  ALA191     -0.1231
     59  CA       -57.3860    4.9680  109.1470 C.3   191  ALA191      0.1694
     60  C        -57.9700    4.9160  110.5600 C.2   191  ALA191      0.2592
     61  O        -59.0210    4.3090  110.7780 O.2   191  ALA191     -0.2718
     62  CB       -57.7110    6.2920  108.4910 C.3   191  ALA191      0.0304
     63  N        -57.2330    5.4430  111.5310 N.am  192  TYR192     -0.1962
     64  CA       -57.7030    5.5030  112.9090 C.3   192  TYR192      0.1771
     65  C        -58.7290    6.6420  112.9420 C.2   192  TYR192      0.2620
     66  O        -58.5530    7.6400  112.2280 O.2   192  TYR192     -0.2715
     67  CB       -56.5510    5.8610  113.8520 C.3   192  TYR192      0.0574
     68  CG       -55.4740    4.8050  114.0120 C.ar  192  TYR192     -0.0198
     69  CD1      -55.7930    3.5070  114.4320 C.ar  192  TYR192     -0.0009
     70  CD2      -54.1220    5.1250  113.8210 C.ar  192  TYR192     -0.0009
     71  CE1      -54.8000    2.5540  114.6670 C.ar  192  TYR192      0.0417
     72  CE2      -53.1090    4.1760  114.0550 C.ar  192  TYR192      0.0417
     73  CZ       -53.4600    2.8910  114.4810 C.ar  192  TYR192      0.1957
     74  OH       -52.4770    1.9460  114.7270 O.3   192  TYR192     -0.2866
     75  N        -59.8110    6.4900  113.7100 N.am  193  SER193     -0.1936
     76  CA       -60.8070    7.5600  113.8060 C.3   193  SER193      0.2055
     77  C        -60.6890    8.2690  115.1420 C.2   193  SER193      0.2643
     78  O        -60.6940    7.6240  116.1830 O.2   193  SER193     -0.2714
     79  CB       -62.2150    6.9980  113.6830 C.3   193  SER193      0.2130
     80  OG       -62.4900    6.6560  112.3440 O.3   193  SER193     -0.2179
     81  N        -60.5420    9.5860  115.1410 N.am  194  ASN194     -0.1971
     82  CA       -60.4720   10.2940  116.4210 C.3   194  ASN194      0.1688
     83  C        -61.8730   10.5430  116.9800 C.2   194  ASN194      0.2292
     84  O        -62.0460   10.7370  118.1860 O.2   194  ASN194     -0.2864
     85  CB       -59.7370   11.6160  116.2660 C.3   194  ASN194      0.1181
     86  CG       -58.2510   11.4380  116.2520 C.2   194  ASN194      0.2629
     87  OD1      -57.7040   10.6820  117.0650 O.2   194  ASN194     -0.2716
     88  ND2      -57.5740   12.1390  115.3510 N.am  194  ASN194     -0.0877
     89  N        -66.5550    7.6960  119.7840 N.3   210  TYR210     -0.1227
     90  CA       -65.2960    7.0460  119.4460 C.3   210  TYR210      0.1736
     91  C        -64.9100    5.8640  120.2760 C.2   210  TYR210      0.2595
     92  O        -64.1490    5.0130  119.8340 O.2   210  TYR210     -0.2718
     93  CB       -64.1460    8.0280  119.4800 C.3   210  TYR210      0.0548
     94  CG       -63.9110    8.6070  120.8310 C.ar  210  TYR210     -0.0200
     95  CD1      -64.5280    9.8100  121.2050 C.ar  210  TYR210     -0.0009
     96  CD2      -63.0170    8.0060  121.7190 C.ar  210  TYR210     -0.0009
     97  CE1      -64.2460   10.4260  122.4350 C.ar  210  TYR210      0.0417
     98  CE2      -62.7230    8.6050  122.9530 C.ar  210  TYR210      0.0417
     99  CZ       -63.3370    9.8210  123.3030 C.ar  210  TYR210      0.1957
    100  OH       -62.9890   10.4530  124.4790 O.3   210  TYR210     -0.2866
    101  N        -65.3730    5.8220  121.5060 N.am  211  ASN211     -0.1960
    102  CA       -65.0200    4.7080  122.3400 C.3   211  ASN211      0.1819
    103  C        -65.4830    3.3830  121.7540 C.2   211  ASN211      0.2622
    104  O        -64.8490    2.3570  121.9800 O.2   211  ASN211     -0.2715
    105  CB       -65.5660    4.8950  123.7440 C.3   211  ASN211      0.1195
    106  CG       -65.1590    3.7780  124.6660 C.2   211  ASN211      0.2630
    107  OD1      -66.0250    3.1030  125.2410 O.2   211  ASN211     -0.2716
    108  ND2      -63.8350    3.5450  124.7980 N.am  211  ASN211     -0.0877
    109  N        -66.5280    3.3980  120.9310 N.am  212  THR212     -0.1937
    110  CA       -66.9940    2.1460  120.3680 C.3   212  THR212      0.2028
    111  C        -65.9800    1.5350  119.3860 C.2   212  THR212      0.2642
    112  O        -65.9780    0.3350  119.1870 O.2   212  THR212     -0.2714
    113  CB       -68.4690    2.2110  119.7870 C.3   212  THR212      0.1808
    114  OG1      -68.4500    2.0520  118.3710 O.3   212  THR212     -0.2208
    115  CG2      -69.1720    3.5140  120.0940 C.3   212  THR212      0.0379
    116  N        -65.0730    2.3410  118.8330 N.am  213  LEU213     -0.1963
    117  CA       -64.0500    1.8480  117.9020 C.3   213  LEU213      0.1728
    118  C        -62.7150    1.5630  118.5840 C.2   213  LEU213      0.2616
    119  O        -61.7350    1.2130  117.9200 O.2   213  LEU213     -0.2715
    120  CB       -63.7550    2.8670  116.8160 C.3   213  LEU213      0.0311
    121  CG       -64.8920    3.4700  116.0180 C.3   213  LEU213      0.0022
    122  CD1      -64.2990    4.4460  115.0150 C.3   213  LEU213      0.0001
    123  CD2      -65.6980    2.3920  115.3250 C.3   213  LEU213      0.0001
    124  N        -62.6300    1.7480  119.8920 N.am  214  ASN214     -0.1958
    125  CA       -61.3550    1.5000  120.5430 C.3   214  ASN214      0.1819
    126  C        -61.1930    0.0710  121.0280 C.2   214  ASN214      0.2621
    127  O        -61.8080   -0.3250  122.0190 O.2   214  ASN214     -0.2715
    128  CB       -61.1370    2.4680  121.7100 C.3   214  ASN214      0.1195
    129  CG       -59.7730    2.2870  122.3730 C.2   214  ASN214      0.2630
    130  OD1      -59.6960    2.0100  123.5640 O.2   214  ASN214     -0.2716
    131  ND2      -58.6960    2.4310  121.6010 N.am  214  ASN214     -0.0877
    132  N        -60.4410   -0.7380  120.2960 N.am  215  ASN215     -0.1958
    133  CA       -60.2080   -2.0940  120.7640 C.3   215  ASN215      0.1819
    134  C        -58.8260   -2.4850  120.3090 C.2   215  ASN215      0.2621
    135  O        -58.6390   -3.3310  119.4310 O.2   215  ASN215     -0.2715
    136  CB       -61.2700   -3.0730  120.2750 C.3   215  ASN215      0.1195
    137  CG       -61.7140   -4.0880  121.3670 C.2   215  ASN215      0.2630
    138  OD1      -60.9290   -4.4560  122.2650 O.2   215  ASN215     -0.2716
    139  ND2      -62.9690   -4.5680  121.2670 N.am  215  ASN215     -0.0877
    140  N        -57.8640   -1.7800  120.8930 N.am  216  LEU216     -0.1977
    141  CA       -56.4550   -1.9570  120.6130 C.3   216  LEU216      0.1596
    142  C        -55.8080   -2.9240  121.6040 C.2   216  LEU216      0.2287
    143  O        -54.6600   -3.3020  121.4380 O.2   216  LEU216     -0.2864
    144  CB       -55.7700   -0.5960  120.6860 C.3   216  LEU216      0.0297
    145  CG       -55.8060    0.3710  119.4990 C.3   216  LEU216      0.0022
    146  CD1      -57.0180    0.2100  118.6320 C.3   216  LEU216      0.0001
    147  CD2      -55.7570    1.7670  120.0760 C.3   216  LEU216      0.0001
    148  N        -63.3770    9.0020  127.8340 N.3   262  PHE262     -0.1241
    149  CA       -64.0810    8.3810  126.7130 C.3   262  PHE262      0.1605
    150  C        -65.3110    9.0540  126.1120 C.2   262  PHE262      0.2264
    151  O        -66.1980    8.3850  125.5750 O.2   262  PHE262     -0.2867
    152  CB       -64.3380    6.9100  127.0270 C.3   262  PHE262      0.0534
    153  CG       -63.1140    6.2010  127.5240 C.ar  262  PHE262     -0.0203
    154  CD1      -62.0530    5.9270  126.6510 C.ar  262  PHE262     -0.0042
    155  CD2      -62.9650    5.9100  128.8880 C.ar  262  PHE262     -0.0042
    156  CE1      -60.8590    5.3770  127.1240 C.ar  262  PHE262     -0.0003
    157  CE2      -61.7730    5.3590  129.3710 C.ar  262  PHE262     -0.0003
    158  CZ       -60.7190    5.0970  128.4860 C.ar  262  PHE262     -0.0000
@<TRIPOS>BOND
     1    58    59    1
     2    56    57    2
     3    56    55    1
     4    62    59    1
     5    49    48    2
     6    59    60    1
     7    55    54    1
     8    48    54   am
     9    48    47    1
    10    60    61    2
    11    60    63   am
    12    43    42    2
    13    47    50    1
    14    47    46    1
    15    63    64    1
    16    42    46   am
    17    42    41    1
    18    50    51    1
    19    50    52    1
    20    45    44    1
    21    44    41    1
    22    66    65    2
    23    80    79    1
    24    51    53    1
    25    41    40    1
    26    40    34   am
    27    64    65    1
    28    64    67    1
    29    32    33    1
    30    65    75   am
    31    34    33    1
    32    34    35    2
    33    33    36    1
    34    79    76    1
    35    75    76    1
    36    76    77    1
    37    70    68   ar
    38    70    72   ar
    39    67    68    1
    40    68    69   ar
    41    72    73   ar
    42    69    71   ar
    43    73    71   ar
    44    73    74    1
    45    38    36    1
    46    36    37    1
    47   122   121    1
    48    81    77   am
    49    81    82    1
    50    77    78    2
    51   123   121    1
    52    88    86   am
    53    37    39    1
    54   121   120    1
    55    86    85    1
    56    86    87    2
    57    85    82    1
    58    82    83    1
    59   120   117    1
    60    83    84    2
    61   117   118    1
    62   117   116    1
    63   119   118    2
    64   114   113    1
    65   118   124   am
    66   146   145    1
    67   116   111   am
    68   112   111    2
    69   111   110    1
    70   135   134    2
    71    90    93    1
    72    90    89    1
    73    90    91    1
    74    93    94    1
    75   145   147    1
    76   145   144    1
    77   113   115    1
    78   113   110    1
    79    92    91    2
    80   124   125    1
    81    30    31    1
    82    30    29    1
    83   136   133    1
    84   136   137    1
    85    91   101   am
    86   132   133    1
    87   132   126   am
    88   134   133    1
    89   134   140   am
    90   110   109    1
    91    24    23    1
    92   125   126    1
    93   125   128    1
    94   141   144    1
    95   141   140    1
    96   141   142    1
    97    31    25    1
    98    94    95   ar
    99    94    96   ar
   100   109   103   am
   101   126   127    2
   102    95    97   ar
   103    28    27    2
   104    14    13    1
   105   139   137   am
   106   137   138    2
   107    29    26    1
   108   143   142    2
   109    23    22    1
   110    15    13    1
   111   101   102    1
   112   131   129   am
   113   128   129    1
   114    96    98   ar
   115   103   104    2
   116   103   102    1
   117    25    26    1
   118    13    10    1
   119    27    26    1
   120   102   105    1
   121   129   130    2
   122    97    99   ar
   123    22    21    1
   124    98    99   ar
   125    99   100    1
   126    10     9    1
   127    10    11    1
   128     9     3   am
   129    12    11    2
   130   105   106    1
   131    21    20    1
   132    11    16   am
   133     2     3    1
   134     2     1    1
   135     2     5    1
   136     3     4    2
   137   106   108   am
   138   106   107    2
   139    16    17    1
   140     5     6    1
   141    20    17    1
   142    17    18    1
   143   151   150    2
   144   150   149    1
   145     6     7    2
   146     6     8   am
   147   154   156   ar
   148   154   153   ar
   149   149   152    1
   150   149   148    1
   151    18    19    2
   152   152   153    1
   153   156   158   ar
   154   153   155   ar
   155   158   157   ar
   156   155   157   ar
