@<TRIPOS>MOLECULE
tmp/1d4mA00.pdb
 226 215 0 0 0
SMALL
GASTEIGER

@<TRIPOS>ATOM
      1  N        -55.1300    0.3350  126.2190 N.3    95  ILE95      -0.1231
      2  CA       -54.5000    1.3160  125.3340 C.3    95  ILE95       0.1692
      3  C        -55.4890    2.2940  124.6920 C.2    95  ILE95       0.2592
      4  O        -56.5130    1.8900  124.1370 O.2    95  ILE95      -0.2718
      5  CB       -53.6960    0.6180  124.2060 C.3    95  ILE95       0.0266
      6  CG1      -52.7030   -0.3720  124.7940 C.3    95  ILE95       0.0019
      7  CG2      -52.9390    1.6380  123.3940 C.3    95  ILE95       0.0020
      8  CD1      -52.3890   -1.4950  123.8440 C.3    95  ILE95       0.0001
      9  N        -55.1700    3.5800  124.7980 N.am   96  ASN96      -0.1960
     10  CA       -55.9600    4.6600  124.2040 C.3    96  ASN96       0.1819
     11  C        -55.1320    5.9570  124.2340 C.2    96  ASN96       0.2622
     12  O        -54.0960    6.0150  124.8910 O.2    96  ASN96      -0.2715
     13  CB       -57.2720    4.8470  124.9420 C.3    96  ASN96       0.1195
     14  CG       -57.0970    5.5460  126.2650 C.2    96  ASN96       0.2630
     15  OD1      -57.1630    6.7760  126.3460 O.2    96  ASN96      -0.2716
     16  ND2      -56.8570    4.7700  127.3140 N.am   96  ASN96      -0.0877
     17  N        -55.5970    7.0070  123.5690 N.am   97  THR97      -0.1937
     18  CA       -54.8600    8.2750  123.5170 C.3    97  THR97       0.2028
     19  C        -55.7190    9.4270  124.0420 C.2    97  THR97       0.2642
     20  O        -55.4680   10.5900  123.7350 O.2    97  THR97      -0.2714
     21  CB       -54.4610    8.6210  122.0510 C.3    97  THR97       0.1808
     22  OG1      -55.6370    8.6670  121.2330 O.3    97  THR97      -0.2208
     23  CG2      -53.5150    7.6040  121.4780 C.3    97  THR97       0.0379
     24  N        -56.6920    9.1150  124.8880 N.am   98  LYS98      -0.1977
     25  CA       -57.6070   10.1350  125.3770 C.3    98  LYS98       0.1596
     26  C        -57.4670   10.5870  126.8170 C.2    98  LYS98       0.2287
     27  O        -58.1980   11.4780  127.2310 O.2    98  LYS98      -0.2864
     28  CB       -59.0410    9.6570  125.1710 C.3    98  LYS98       0.0298
     29  CG       -59.3760    9.2040  123.7680 C.3    98  LYS98       0.0038
     30  CD       -59.4000   10.3670  122.7950 C.3    98  LYS98       0.0206
     31  CE       -60.0360    9.9400  121.4780 C.3    98  LYS98       0.1093
     32  NZ       -60.1810   11.0310  120.4770 N.3    98  LYS98      -0.1314
     33  N        -53.8700   15.2380  118.3080 N.3   107  LEU107     -0.1245
     34  CA       -54.4480   14.2390  117.4180 C.3   107  LEU107      0.1561
     35  C        -55.8360   14.6620  116.9780 C.2   107  LEU107      0.2260
     36  O        -56.1870   14.5540  115.8060 O.2   107  LEU107     -0.2867
     37  CB       -54.5550   12.8940  118.1220 C.3   107  LEU107      0.0270
     38  CG       -53.2550   12.2930  118.6320 C.3   107  LEU107      0.0019
     39  CD1      -53.5530   11.0360  119.4720 C.3   107  LEU107      0.0001
     40  CD2      -52.3520   11.9720  117.4530 C.3   107  LEU107      0.0001
     41  N        -56.5060    9.6080  110.9960 N.3   113  LEU113     -0.1245
     42  CA       -55.0520    9.5880  111.0530 C.3   113  LEU113      0.1561
     43  C        -54.5720    8.1910  110.6830 C.2   113  LEU113      0.2260
     44  O        -55.2470    7.1990  110.9580 O.2   113  LEU113     -0.2867
     45  CB       -54.6160    9.8800  112.4950 C.3   113  LEU113      0.0270
     46  CG       -53.9310   11.1680  112.9600 C.3   113  LEU113      0.0019
     47  CD1      -54.0670   12.2760  111.9570 C.3   113  LEU113      0.0001
     48  CD2      -54.5000   11.5670  114.3070 C.3   113  LEU113      0.0001
     49  N        -50.7680    6.1500  110.7750 N.3   115  PHE115     -0.1241
     50  CA       -49.3480    6.2200  111.0810 C.3   115  PHE115      0.1605
     51  C        -48.8130    4.9780  111.7830 C.2   115  PHE115      0.2264
     52  O        -49.5730    4.1170  112.2420 O.2   115  PHE115     -0.2867
     53  CB       -49.0650    7.4490  111.9600 C.3   115  PHE115      0.0534
     54  CG       -49.9280    7.5190  113.2070 C.ar  115  PHE115     -0.0203
     55  CD1      -49.8130    6.5590  114.2240 C.ar  115  PHE115     -0.0042
     56  CD2      -50.8940    8.5250  113.3450 C.ar  115  PHE115     -0.0042
     57  CE1      -50.6430    6.6010  115.3430 C.ar  115  PHE115     -0.0003
     58  CE2      -51.7230    8.5660  114.4690 C.ar  115  PHE115     -0.0003
     59  CZ       -51.5940    7.6010  115.4610 C.ar  115  PHE115     -0.0000
     60  N        -46.2500    3.6590  114.8940 N.3   117  MET117     -0.1245
     61  CA       -46.0970    4.2160  116.2220 C.3   117  MET117      0.1570
     62  C        -44.8240    3.7810  116.9280 C.2   117  MET117      0.2261
     63  O        -44.4810    2.5920  116.9370 O.2   117  MET117     -0.2867
     64  CB       -47.3330    3.8010  117.0370 C.3   117  MET117      0.0387
     65  CG       -47.4130    4.3010  118.4710 C.3   117  MET117      0.0595
     66  SD       -47.5750    6.0760  118.5670 S.3   117  MET117     -0.1393
     67  CE       -49.3170    6.2670  118.3760 C.3   117  MET117      0.0692
     68  N        -43.0550    3.5360  120.4570 N.3   119  VAL119     -0.1245
     69  CA       -43.4170    3.5540  121.8790 C.3   119  VAL119      0.1561
     70  C        -42.1610    3.4910  122.7560 C.2   119  VAL119      0.2260
     71  O        -41.3080    2.6240  122.5560 O.2   119  VAL119     -0.2867
     72  CB       -44.3550    2.3520  122.2320 C.3   119  VAL119      0.0252
     73  CG1      -44.8550    2.4800  123.6610 C.3   119  VAL119      0.0019
     74  CG2      -45.5280    2.2770  121.2600 C.3   119  VAL119      0.0019
     75  N        -40.7690    3.6700  126.8960 N.3   121  PHE121     -0.1241
     76  CA       -41.1930    3.5500  128.2800 C.3   121  PHE121      0.1605
     77  C        -40.1490    4.1000  129.2120 C.2   121  PHE121      0.2264
     78  O        -38.9500    3.8120  129.0670 O.2   121  PHE121     -0.2867
     79  CB       -41.3990    2.0930  128.6560 C.3   121  PHE121      0.0534
     80  CG       -42.3700    1.3760  127.7850 C.ar  121  PHE121     -0.0203
     81  CD1      -43.7400    1.5360  127.9730 C.ar  121  PHE121     -0.0042
     82  CD2      -41.9230    0.5270  126.7800 C.ar  121  PHE121     -0.0042
     83  CE1      -44.6470    0.8500  127.1820 C.ar  121  PHE121     -0.0003
     84  CE2      -42.8340   -0.1600  125.9870 C.ar  121  PHE121     -0.0003
     85  CZ       -44.1890    0.0060  126.1880 C.ar  121  PHE121     -0.0000
     86  N        -43.0280   -5.9580  130.3160 N.3   144  ILE144     -0.1245
     87  CA       -44.1430   -5.2170  129.7370 C.3   144  ILE144      0.1561
     88  C        -44.6920   -6.1370  128.6560 C.2   144  ILE144      0.2260
     89  O        -43.9620   -6.4960  127.7240 O.2   144  ILE144     -0.2867
     90  CB       -43.6710   -3.9320  129.0780 C.3   144  ILE144      0.0252
     91  CG1      -42.8760   -3.1080  130.0760 C.3   144  ILE144      0.0019
     92  CG2      -44.8550   -3.1460  128.5650 C.3   144  ILE144      0.0019
     93  CD1      -42.0630   -2.0300  129.4380 C.3   144  ILE144      0.0001
     94  N        -47.9020   -7.0130  125.8740 N.3   146  TYR146     -0.1241
     95  CA       -49.0250   -6.4860  125.1350 C.3   146  TYR146      0.1605
     96  C        -50.0040   -7.6250  124.8780 C.2   146  TYR146      0.2264
     97  O        -49.6360   -8.6530  124.2960 O.2   146  TYR146     -0.2867
     98  CB       -48.5460   -5.9150  123.8180 C.3   146  TYR146      0.0534
     99  CG       -49.6720   -5.5790  122.8860 C.ar  146  TYR146     -0.0201
    100  CD1      -50.7300   -4.7600  123.3010 C.ar  146  TYR146     -0.0009
    101  CD2      -49.6760   -6.0520  121.5760 C.ar  146  TYR146     -0.0009
    102  CE1      -51.7560   -4.4220  122.4310 C.ar  146  TYR146      0.0417
    103  CE2      -50.6940   -5.7180  120.6980 C.ar  146  TYR146      0.0417
    104  CZ       -51.7230   -4.9040  121.1310 C.ar  146  TYR146      0.1957
    105  OH       -52.7160   -4.5550  120.2620 O.3   146  TYR146     -0.2866
    106  N        -46.3540  -10.2040  122.4480 N.3   168  PRO168     -0.2102
    107  CA       -45.0360   -9.5690  122.5100 C.3   168  PRO168      0.1504
    108  C        -44.8130   -8.9530  123.9140 C.2   168  PRO168      0.2576
    109  O        -45.7480   -8.4120  124.5280 O.2   168  PRO168     -0.2718
    110  CB       -45.1150   -8.5170  121.4060 C.3   168  PRO168      0.0282
    111  CG       -46.5400   -8.1330  121.4170 C.3   168  PRO168      0.0208
    112  CD       -47.2430   -9.4580  121.5420 C.3   168  PRO168      0.0893
    113  N        -43.6080   -9.1610  124.4560 N.am  169  SER169     -0.1938
    114  CA       -43.2000   -8.6560  125.7680 C.3   169  SER169      0.2055
    115  C        -41.8100   -8.0590  125.6920 C.2   169  SER169      0.2642
    116  O        -41.0320   -8.3660  124.7890 O.2   169  SER169     -0.2714
    117  CB       -43.1460   -9.7920  126.7840 C.3   169  SER169      0.2130
    118  OG       -44.4000  -10.0030  127.3960 O.3   169  SER169     -0.2179
    119  N        -41.5100   -7.1760  126.6320 N.am  170  ILE170     -0.1977
    120  CA       -40.1900   -6.5820  126.7230 C.3   170  ILE170      0.1596
    121  C        -39.7180   -6.8060  128.1510 C.2   170  ILE170      0.2287
    122  O        -40.4760   -6.6090  129.1050 O.2   170  ILE170     -0.2864
    123  CB       -40.1830   -5.0590  126.4580 C.3   170  ILE170      0.0276
    124  CG1      -40.4430   -4.7680  124.9910 C.3   170  ILE170      0.0022
    125  CG2      -38.8110   -4.4560  126.7960 C.3   170  ILE170      0.0022
    126  CD1      -40.4530   -3.2910  124.7010 C.3   170  ILE170      0.0001
    127  N        -39.8290    0.4350  121.0640 N.3   181  MET181     -0.1245
    128  CA       -40.1170   -0.4180  119.9120 C.3   181  MET181      0.1570
    129  C        -41.1320    0.2310  119.0070 C.2   181  MET181      0.2261
    130  O        -41.7490    1.2170  119.4020 O.2   181  MET181     -0.2867
    131  CB       -40.5560   -1.8170  120.3390 C.3   181  MET181      0.0387
    132  CG       -41.2800   -1.8790  121.6730 C.3   181  MET181      0.0595
    133  SD       -42.9490   -1.3720  121.5760 S.3   181  MET181     -0.1393
    134  CE       -43.4070   -2.4830  120.5190 C.3   181  MET181      0.0692
    135  N        -44.5180   -0.1400  116.3370 N.3   183  ILE183     -0.1231
    136  CA       -45.7310   -0.8920  116.0530 C.3   183  ILE183      0.1678
    137  C        -46.2190   -0.3250  114.7270 C.2   183  ILE183      0.2434
    138  O        -46.1630    0.8940  114.5140 O.2   183  ILE183     -0.2733
    139  CB       -46.7970   -0.6490  117.1350 C.3   183  ILE183      0.0265
    140  CG1      -46.5850   -1.6260  118.2620 C.3   183  ILE183      0.0019
    141  CG2      -48.1930   -0.8320  116.6180 C.3   183  ILE183      0.0020
    142  CD1      -45.7360   -1.0390  119.2870 C.3   183  ILE183      0.0001
    143  N        -46.6500   -1.1910  113.7940 N.am  184  PRO184     -0.2729
    144  CA       -47.1190   -0.6360  112.5210 C.3   184  PRO184      0.1401
    145  C        -48.5600   -0.1310  112.6510 C.2   184  PRO184      0.2269
    146  O        -49.1080   -0.1050  113.7580 O.2   184  PRO184     -0.2865
    147  CB       -46.9660   -1.8220  111.5680 C.3   184  PRO184      0.0296
    148  CG       -47.2530   -2.9940  112.4400 C.3   184  PRO184      0.0237
    149  CD       -46.6130   -2.6670  113.7680 C.3   184  PRO184      0.0939
    150  N        -51.9670   -0.5760  112.9350 N.3   186  ILE186     -0.1245
    151  CA       -52.7510   -1.7760  113.2370 C.3   186  ILE186      0.1561
    152  C        -54.2760   -1.7420  113.2090 C.2   186  ILE186      0.2260
    153  O        -54.9110   -2.7020  113.6400 O.2   186  ILE186     -0.2867
    154  CB       -52.3520   -2.3610  114.5990 C.3   186  ILE186      0.0252
    155  CG1      -52.6040   -1.3330  115.7030 C.3   186  ILE186      0.0019
    156  CG2      -50.9010   -2.8230  114.5720 C.3   186  ILE186      0.0019
    157  CD1      -52.4320   -1.8840  117.0960 C.3   186  ILE186      0.0001
    158  N        -57.2330    5.4430  111.5310 N.3   192  TYR192     -0.1227
    159  CA       -57.7030    5.5030  112.9090 C.3   192  TYR192      0.1736
    160  C        -58.7290    6.6420  112.9420 C.2   192  TYR192      0.2596
    161  O        -58.5530    7.6400  112.2280 O.2   192  TYR192     -0.2718
    162  CB       -56.5510    5.8610  113.8520 C.3   192  TYR192      0.0548
    163  CG       -55.4740    4.8050  114.0120 C.ar  192  TYR192     -0.0200
    164  CD1      -55.7930    3.5070  114.4320 C.ar  192  TYR192     -0.0009
    165  CD2      -54.1220    5.1250  113.8210 C.ar  192  TYR192     -0.0009
    166  CE1      -54.8000    2.5540  114.6670 C.ar  192  TYR192      0.0417
    167  CE2      -53.1090    4.1760  114.0550 C.ar  192  TYR192      0.0417
    168  CZ       -53.4600    2.8910  114.4810 C.ar  192  TYR192      0.1957
    169  OH       -52.4770    1.9460  114.7270 O.3   192  TYR192     -0.2866
    170  N        -59.8110    6.4900  113.7100 N.am  193  SER193     -0.1938
    171  CA       -60.8070    7.5600  113.8060 C.3   193  SER193      0.2055
    172  C        -60.6890    8.2690  115.1420 C.2   193  SER193      0.2643
    173  O        -60.6940    7.6240  116.1830 O.2   193  SER193     -0.2714
    174  CB       -62.2150    6.9980  113.6830 C.3   193  SER193      0.2130
    175  OG       -62.4900    6.6560  112.3440 O.3   193  SER193     -0.2179
    176  N        -60.5420    9.5860  115.1410 N.am  194  ASN194     -0.1971
    177  CA       -60.4720   10.2940  116.4210 C.3   194  ASN194      0.1688
    178  C        -61.8730   10.5430  116.9800 C.2   194  ASN194      0.2292
    179  O        -62.0460   10.7370  118.1860 O.2   194  ASN194     -0.2864
    180  CB       -59.7370   11.6160  116.2660 C.3   194  ASN194      0.1181
    181  CG       -58.2510   11.4380  116.2520 C.2   194  ASN194      0.2629
    182  OD1      -57.7040   10.6820  117.0650 O.2   194  ASN194     -0.2716
    183  ND2      -57.5740   12.1390  115.3510 N.am  194  ASN194     -0.0877
    184  N        -65.0730    2.3410  118.8330 N.3   213  LEU213     -0.1231
    185  CA       -64.0500    1.8480  117.9020 C.3   213  LEU213      0.1693
    186  C        -62.7150    1.5630  118.5840 C.2   213  LEU213      0.2592
    187  O        -61.7350    1.2130  117.9200 O.2   213  LEU213     -0.2718
    188  CB       -63.7550    2.8670  116.8160 C.3   213  LEU213      0.0284
    189  CG       -64.8920    3.4700  116.0180 C.3   213  LEU213      0.0019
    190  CD1      -64.2990    4.4460  115.0150 C.3   213  LEU213      0.0001
    191  CD2      -65.6980    2.3920  115.3250 C.3   213  LEU213      0.0001
    192  N        -62.6300    1.7480  119.8920 N.am  214  ASN214     -0.1974
    193  CA       -61.3550    1.5000  120.5430 C.3   214  ASN214      0.1688
    194  C        -61.1930    0.0710  121.0280 C.2   214  ASN214      0.2292
    195  O        -61.8080   -0.3250  122.0190 O.2   214  ASN214     -0.2864
    196  CB       -61.1370    2.4680  121.7100 C.3   214  ASN214      0.1181
    197  CG       -59.7730    2.2870  122.3730 C.2   214  ASN214      0.2629
    198  OD1      -59.6960    2.0100  123.5640 O.2   214  ASN214     -0.2716
    199  ND2      -58.6960    2.4310  121.6010 N.am  214  ASN214     -0.0877
    200  N        -57.8640   -1.7800  120.8930 N.3   216  LEU216     -0.1245
    201  CA       -56.4550   -1.9570  120.6130 C.3   216  LEU216      0.1561
    202  C        -55.8080   -2.9240  121.6040 C.2   216  LEU216      0.2260
    203  O        -54.6600   -3.3020  121.4380 O.2   216  LEU216     -0.2867
    204  CB       -55.7700   -0.5960  120.6860 C.3   216  LEU216      0.0270
    205  CG       -55.8060    0.3710  119.4990 C.3   216  LEU216      0.0019
    206  CD1      -57.0180    0.2100  118.6320 C.3   216  LEU216      0.0001
    207  CD2      -55.7570    1.7670  120.0760 C.3   216  LEU216      0.0001
    208  N        -52.0140   -3.2570  127.8910 N.3   219  ILE219     -0.1245
    209  CA       -50.6020   -3.3260  128.2160 C.3   219  ILE219      0.1561
    210  C        -50.6060   -3.7720  129.6820 C.2   219  ILE219      0.2260
    211  O        -51.3740   -3.2360  130.4960 O.2   219  ILE219     -0.2867
    212  CB       -49.9120   -1.9720  128.1130 C.3   219  ILE219      0.0252
    213  CG1      -49.5220   -1.7070  126.6740 C.3   219  ILE219      0.0019
    214  CG2      -48.6650   -1.9340  128.9780 C.3   219  ILE219      0.0019
    215  CD1      -48.7420   -0.4310  126.5360 C.3   219  ILE219      0.0001
    216  N        -45.8300    7.9950  123.2650 N.3   240  PHE240     -0.1241
    217  CA       -46.2100    7.6610  121.8930 C.3   240  PHE240      0.1605
    218  C        -45.6180    8.7190  120.9580 C.2   240  PHE240      0.2264
    219  O        -45.6190    9.9060  121.2920 O.2   240  PHE240     -0.2867
    220  CB       -47.7340    7.6960  121.7370 C.3   240  PHE240      0.0534
    221  CG       -48.4420    6.4650  122.2160 C.ar  240  PHE240     -0.0203
    222  CD1      -47.7470    5.4150  122.7930 C.ar  240  PHE240     -0.0042
    223  CD2      -49.8250    6.3640  122.0850 C.ar  240  PHE240     -0.0042
    224  CE1      -48.4230    4.2850  123.2440 C.ar  240  PHE240     -0.0003
    225  CE2      -50.5100    5.2340  122.5320 C.ar  240  PHE240     -0.0003
    226  CZ       -49.8150    4.1970  123.1070 C.ar  240  PHE240     -0.0000
@<TRIPOS>BOND
     1    43    44    2
     2    43    42    1
     3    49    50    1
     4    41    42    1
     5    42    45    1
     6    50    51    1
     7    50    53    1
     8   158   159    1
     9   147   148    1
    10   147   144    1
    11    51    52    2
    12    47    46    1
    13    53    54    1
    14   161   160    2
    15   175   174    1
    16   148   149    1
    17    45    46    1
    18   144   145    1
    19   144   143    1
    20   145   146    2
    21   159   160    1
    22   159   162    1
    23   150   151    1
    24   160   170   am
    25    46    48    1
    26    54    56   ar
    27    54    55   ar
    28   152   151    1
    29   152   153    2
    30   151   154    1
    31    56    58   ar
    32   174   171    1
    33   170   171    1
    34   149   143    1
    35   143   137   am
    36   171   172    1
    37   165   163   ar
    38   165   167   ar
    39   162   163    1
    40   163   164   ar
    41   167   168   ar
    42    55    57   ar
    43   164   166   ar
    44    58    59   ar
    45   168   166   ar
    46   168   169    1
    47   138   137    2
    48   156   154    1
    49   154   155    1
    50   137   136    1
    51    60    61    1
    52   190   189    1
    53   176   172   am
    54   176   177    1
    55   172   173    2
    56   191   189    1
    57    57    59   ar
    58   183   181   am
    59   155   157    1
    60    36    35    2
    61   189   188    1
    62   136   135    1
    63   136   139    1
    64    61    62    1
    65    61    64    1
    66   181   180    1
    67   181   182    2
    68   180   177    1
    69   177   178    1
    70   141   139    1
    71   188   185    1
    72    62    63    2
    73    35    34    1
    74   178   179    2
    75    64    65    1
    76   139   140    1
    77    34    37    1
    78    34    33    1
    79    40    38    1
    80   185   186    1
    81   185   184    1
    82   187   186    2
    83    37    38    1
    84   140   142    1
    85    67    66    1
    86    65    66    1
    87   186   192   am
    88   206   205    1
    89    38    39    1
    90   129   130    2
    91   129   128    1
    92   205   207    1
    93   205   204    1
    94   192   193    1
    95   128   131    1
    96   128   127    1
    97   105   104    1
    98   131   132    1
    99    68    69    1
   100    32    31    1
   101   134   133    1
   102   193   194    1
   103   193   196    1
   104   201   204    1
   105   201   200    1
   106   201   202    1
   107   103   104   ar
   108   103   101   ar
   109   218   219    2
   110   218   217    1
   111   194   195    2
   112   104   102   ar
   113    22    21    1
   114    74    72    1
   115   110   111    1
   116   110   107    1
   117   111   112    1
   118   203   202    2
   119    23    21    1
   120    31    30    1
   121   112   106    1
   122   101    99   ar
   123   133   132    1
   124   199   197   am
   125   196   197    1
   126   220   217    1
   127   220   221    1
   128    69    72    1
   129    69    70    1
   130   217   216    1
   131    21    18    1
   132   223   221   ar
   133   223   225   ar
   134   221   222   ar
   135    72    73    1
   136   197   198    2
   137   102   100   ar
   138   106   107    1
   139   107   108    1
   140   225   226   ar
   141    71    70    2
   142   222   224   ar
   143    30    29    1
   144    99   100   ar
   145    99    98    1
   146   226   224   ar
   147     7     5    1
   148    18    17    1
   149    18    19    1
   150    17    11   am
   151    20    19    2
   152    29    28    1
   153    98    95    1
   154     8     6    1
   155   108   113   am
   156   108   109    2
   157    19    24   am
   158     4     3    2
   159    10    11    1
   160    10     9    1
   161    10    13    1
   162     5     6    1
   163     5     2    1
   164    11    12    2
   165    97    96    2
   166   113   114    1
   167     3     9   am
   168     3     2    1
   169   126   124    1
   170   116   115    2
   171    96    95    1
   172    24    25    1
   173    13    14    1
   174   124   123    1
   175    95    94    1
   176    28    25    1
   177     2     1    1
   178    25    26    1
   179   115   114    1
   180   115   119   am
   181   114   117    1
   182    84    85   ar
   183    84    82   ar
   184    85    83   ar
   185    14    15    2
   186    14    16   am
   187   123   120    1
   188   123   125    1
   189   215   213    1
   190   119   120    1
   191   213   212    1
   192   120   121    1
   193    82    80   ar
   194   117   118    1
   195    26    27    2
   196    75    76    1
   197    83    81   ar
   198    89    88    2
   199    80    81   ar
   200    80    79    1
   201   208   209    1
   202   212   209    1
   203   212   214    1
   204   121   122    2
   205   209   210    1
   206    76    79    1
   207    76    77    1
   208    92    90    1
   209    88    87    1
   210    78    77    2
   211    90    87    1
   212    90    91    1
   213    93    91    1
   214   210   211    2
   215    87    86    1
