@<TRIPOS>MOLECULE
tmp/1d4pB01.pdb
 215 216 0 0 0
SMALL
GASTEIGER

@<TRIPOS>ATOM
      1  N        -13.3500  -27.0180   18.5480 N.3    43  HIS43      -0.1241
      2  CA       -13.4680  -28.3970   18.0870 C.3    43  HIS43       0.1621
      3  C        -14.2630  -28.5310   16.7830 C.2    43  HIS43       0.2264
      4  O        -14.2780  -29.5960   16.1690 O.2    43  HIS43      -0.2867
      5  CB       -14.0480  -29.2770   19.1910 C.3    43  HIS43       0.0745
      6  CG       -15.5430  -29.3460   19.2030 C.ar   43  HIS43       0.0817
      7  ND1      -16.3050  -28.7050   20.1540 N.ar   43  HIS43      -0.2268
      8  CD2      -16.4130  -30.0100   18.4040 C.ar   43  HIS43       0.1154
      9  CE1      -17.5820  -28.9710   19.9420 C.ar   43  HIS43       0.1986
     10  NE2      -17.6730  -29.7590   18.8850 N.ar   43  HIS43      -0.2212
     11  N        -10.0840  -31.1410   15.6270 N.3    47  TYR47      -0.1241
     12  CA       -10.2340  -32.2640   16.5170 C.3    47  TYR47       0.1605
     13  C         -9.5360  -33.4670   15.9190 C.2    47  TYR47       0.2264
     14  O        -10.1350  -34.2910   15.2400 O.2    47  TYR47      -0.2867
     15  CB       -11.7280  -32.5500   16.6760 C.3    47  TYR47       0.0534
     16  CG       -11.9490  -33.4530   17.8360 C.ar   47  TYR47      -0.0201
     17  CD1      -11.5410  -33.0620   19.1080 C.ar   47  TYR47      -0.0009
     18  CD2      -12.5340  -34.7070   17.6540 C.ar   47  TYR47      -0.0009
     19  CE1      -11.7090  -33.9160   20.1880 C.ar   47  TYR47       0.0417
     20  CE2      -12.7020  -35.5610   18.7340 C.ar   47  TYR47       0.0417
     21  CZ       -12.2900  -35.1710   19.9940 C.ar   47  TYR47       0.1957
     22  OH       -12.4460  -36.0200   21.0720 O.3    47  TYR47      -0.2866
     23  N        -10.4430  -37.2910   15.3700 N.3    50  TRP50      -0.1241
     24  CA       -11.3600  -37.6170   14.2800 C.3    50  TRP50       0.1605
     25  C        -10.7600  -37.0920   12.9890 C.2    50  TRP50       0.2264
     26  O        -11.4690  -36.9150   11.9980 O.2    50  TRP50      -0.2867
     27  CB       -12.7380  -36.9670   14.4820 C.3    50  TRP50       0.0550
     28  CG       -13.6040  -37.5740   15.5780 C.ar   50  TRP50       0.0003
     29  CD1      -13.2740  -38.5810   16.4390 C.ar   50  TRP50       0.0946
     30  CD2      -14.9420  -37.1790   15.9230 C.ar   50  TRP50       0.0152
     31  NE1      -14.3160  -38.8410   17.3030 N.ar   50  TRP50      -0.2442
     32  CE2      -15.3550  -37.9930   17.0030 C.ar   50  TRP50       0.0810
     33  CE3      -15.8310  -36.2210   15.4270 C.ar   50  TRP50       0.0012
     34  CZ2      -16.6200  -37.8760   17.5960 C.ar   50  TRP50       0.0191
     35  CZ3      -17.0900  -36.1020   16.0150 C.ar   50  TRP50       0.0001
     36  CH2      -17.4700  -36.9260   17.0880 C.ar   50  TRP50       0.0015
     37  N         -9.9520  -34.2430   12.0930 N.3    52  LYS52      -0.1245
     38  CA       -10.5900  -33.0040   11.6630 C.3    52  LYS52       0.1561
     39  C         -9.6240  -31.8380   11.7870 C.2    52  LYS52       0.2260
     40  O         -9.1050  -31.5660   12.8590 O.2    52  LYS52      -0.2867
     41  CB       -11.8340  -32.7390   12.5090 C.3    52  LYS52       0.0271
     42  CG       -12.4880  -31.3790   12.2530 C.3    52  LYS52       0.0035
     43  CD       -14.0070  -31.4950   12.2320 C.3    52  LYS52       0.0206
     44  CE       -14.6070  -31.2160   13.5840 C.3    52  LYS52       0.1093
     45  NZ       -15.9490  -31.8240   13.6830 N.3    52  LYS52      -0.1314
     46  N         -7.7600  -30.3260   23.3240 N.3    92  TRP92      -0.1241
     47  CA        -8.5060  -31.3830   22.6470 C.3    92  TRP92       0.1605
     48  C         -8.1440  -32.8090   23.0850 C.2    92  TRP92       0.2264
     49  O         -8.9050  -33.7450   22.8290 O.2    92  TRP92      -0.2867
     50  CB        -8.3280  -31.2760   21.1290 C.3    92  TRP92       0.0550
     51  CG        -6.8990  -31.2280   20.6830 C.ar   92  TRP92       0.0003
     52  CD1       -6.1650  -30.1110   20.4210 C.ar   92  TRP92       0.0946
     53  CD2       -6.0440  -32.3460   20.3980 C.ar   92  TRP92       0.0152
     54  NE1       -4.9100  -30.4570   19.9890 N.ar   92  TRP92      -0.2442
     55  CE2       -4.8060  -31.8230   19.9630 C.ar   92  TRP92       0.0810
     56  CE3       -6.2050  -33.7370   20.4660 C.ar   92  TRP92       0.0012
     57  CZ2       -3.7240  -32.6440   19.5950 C.ar   92  TRP92       0.0191
     58  CZ3       -5.1280  -34.5590   20.0990 C.ar   92  TRP92       0.0001
     59  CH2       -3.9050  -34.0050   19.6700 C.ar   92  TRP92       0.0015
     60  N         -7.8290  -33.9410   26.2260 N.3    94  GLU94      -0.1231
     61  CA        -8.5290  -34.4040   27.4100 C.3    94  GLU94       0.1699
     62  C         -9.9860  -34.0300   27.6590 C.2    94  GLU94       0.2592
     63  O        -10.8500  -34.9060   27.6930 O.2    94  GLU94      -0.2718
     64  CB        -7.7240  -34.0170   28.6510 C.3    94  GLU94       0.0402
     65  CG        -8.2810  -34.5790   29.9410 C.3    94  GLU94       0.1161
     66  CD        -7.8350  -33.7890   31.1640 C.2    94  GLU94       0.3649
     67  OE1       -6.9420  -32.9250   31.0240 O.co2  94  GLU94      -0.2457
     68  OE2       -8.3770  -34.0310   32.2650 O.co2  94  GLU94      -0.2457
     69  N        -10.2720  -32.7400   27.8390 N.am   95  ASN95      -0.1960
     70  CA       -11.6310  -32.3340   28.1770 C.3    95  ASN95       0.1819
     71  C        -12.2450  -31.1580   27.4070 C.2    95  ASN95       0.2621
     72  O        -13.2570  -30.6100   27.8420 O.2    95  ASN95      -0.2715
     73  CB       -11.6600  -32.0150   29.6690 C.3    95  ASN95       0.1195
     74  CG       -10.6470  -30.9500   30.0450 C.2    95  ASN95       0.2630
     75  OD1       -9.9420  -30.4240   29.1810 O.2    95  ASN95      -0.2716
     76  ND2      -10.5680  -30.6280   31.3290 N.am   95  ASN95      -0.0877
     77  N        -11.6390  -30.7730   26.2890 N.am   96  LEU96      -0.1977
     78  CA       -12.1210  -29.6570   25.4670 C.3    96  LEU96       0.1596
     79  C        -12.1310  -28.3310   26.2420 C.2    96  LEU96       0.2287
     80  O        -12.9950  -27.4710   26.0340 O.2    96  LEU96      -0.2864
     81  CB       -13.5280  -29.9510   24.9050 C.3    96  LEU96       0.0297
     82  CG       -13.6580  -30.9890   23.7820 C.3    96  LEU96       0.0022
     83  CD1      -14.9630  -30.7790   22.9890 C.3    96  LEU96       0.0001
     84  CD2      -12.4710  -30.8910   22.8620 C.3    96  LEU96       0.0001
     85  N        -15.5540  -36.7940   33.1370 N.3   172  ILE172     -0.1245
     86  CA       -14.6690  -35.8000   32.5340 C.3   172  ILE172      0.1561
     87  C        -14.2670  -34.7420   33.5640 C.2   172  ILE172      0.2260
     88  O        -15.0770  -34.3520   34.4020 O.2   172  ILE172     -0.2867
     89  CB       -15.3610  -35.1080   31.3200 C.3   172  ILE172      0.0252
     90  CG1      -15.7170  -36.1560   30.2680 C.3   172  ILE172      0.0019
     91  CG2      -14.4410  -34.0700   30.7000 C.3   172  ILE172      0.0019
     92  CD1      -14.5280  -37.0070   29.8160 C.3   172  ILE172      0.0001
     93  N        -31.8750  -29.9020   25.2800 N.3   192  ASP192     -0.1225
     94  CA       -30.4280  -29.9210   25.2910 C.3   192  ASP192      0.1805
     95  C        -29.9980  -29.5400   23.8890 C.2   192  ASP192      0.2598
     96  O        -30.8210  -29.4950   22.9690 O.2   192  ASP192     -0.2718
     97  CB       -29.9490  -31.3500   25.6250 C.3   192  ASP192      0.1424
     98  CG       -28.4490  -31.4390   25.9050 C.2   192  ASP192      0.3668
     99  OD1      -27.7690  -30.3880   25.9880 O.co2 192  ASP192     -0.2456
    100  OD2      -27.9430  -32.5870   26.0430 O.co2 192  ASP192     -0.2456
    101  N        -28.7220  -29.2220   23.7340 N.am  193  ALA193     -0.1966
    102  CA       -28.1920  -28.9940   22.4410 C.3   193  ALA193      0.1728
    103  C        -27.7420  -30.3320   21.9740 C.2   193  ALA193      0.2616
    104  O        -27.8130  -31.3240   22.6880 O.2   193  ALA193     -0.2715
    105  CB       -26.9930  -28.0540   22.5700 C.3   193  ALA193      0.0334
    106  N        -27.2630  -30.4770   20.7480 N.am  194  CYS194     -0.1954
    107  CA       -26.8350  -31.7950   20.2670 C.3   194  CYS194      0.1843
    108  C        -25.8340  -31.5830   19.1340 C.2   194  CYS194      0.2625
    109  O        -25.5040  -30.4370   18.7980 O.2   194  CYS194     -0.2714
    110  CB       -28.0600  -32.6010   19.7760 C.3   194  CYS194      0.0997
    111  SG       -27.8850  -34.4320   19.6730 S.3   194  CYS194     -0.0797
    112  N        -25.3350  -32.6830   18.5680 N.am  195  GLU195     -0.1977
    113  CA       -24.3750  -32.6220   17.4730 C.3   195  GLU195      0.1602
    114  C        -24.8870  -31.6750   16.3890 C.2   195  GLU195      0.2287
    115  O        -26.0700  -31.7070   16.0370 O.2   195  GLU195     -0.2864
    116  CB       -24.1580  -34.0310   16.8840 C.3   195  GLU195      0.0415
    117  CG       -23.3970  -34.0620   15.5550 C.3   195  GLU195      0.1163
    118  CD       -23.1870  -35.4780   14.9940 C.2   195  GLU195      0.3649
    119  OE1      -23.4960  -36.4720   15.6970 O.co2 195  GLU195     -0.2457
    120  OE2      -22.7050  -35.5930   13.8410 O.co2 195  GLU195     -0.2457
    121  N        -23.0250  -27.4570   18.2480 N.3   198  SER198     -0.1217
    122  CA       -21.8140  -26.9090   18.8510 C.3   198  SER198      0.1889
    123  C        -21.2960  -25.6880   18.0860 C.2   198  SER198      0.2288
    124  O        -21.5160  -25.5290   16.8700 O.2   198  SER198     -0.2866
    125  CB       -20.7530  -28.0210   19.0310 C.3   198  SER198      0.2089
    126  OG       -20.1190  -28.3720   17.8340 O.3   198  SER198     -0.2183
    127  N        -21.7730  -23.4710   22.7460 N.3   218  VAL218     -0.1231
    128  CA       -22.1040  -24.9000   22.8300 C.3   218  VAL218      0.1692
    129  C        -20.8050  -25.6930   22.6190 C.2   218  VAL218      0.2593
    130  O        -20.1690  -25.6320   21.5550 O.2   218  VAL218     -0.2718
    131  CB       -23.1770  -25.3050   21.7640 C.3   218  VAL218      0.0266
    132  CG1      -23.6250  -26.7860   21.9870 C.3   218  VAL218      0.0020
    133  CG2      -24.3880  -24.3830   21.8670 C.3   218  VAL218      0.0020
    134  N        -20.3880  -26.4140   23.6490 N.am  219  SER219     -0.1938
    135  CA       -19.1430  -27.1680   23.5520 C.3   219  SER219      0.2055
    136  C        -19.3050  -28.6860   23.4580 C.2   219  SER219      0.2643
    137  O        -18.9900  -29.2730   22.4280 O.2   219  SER219     -0.2714
    138  CB       -18.2210  -26.8190   24.7330 C.3   219  SER219      0.2130
    139  OG       -16.9150  -27.3210   24.5010 O.3   219  SER219     -0.2179
    140  N        -19.7930  -29.3210   24.5180 N.am  220  TRP220     -0.1959
    141  CA       -19.9620  -30.7690   24.4900 C.3   220  TRP220      0.1771
    142  C        -20.9910  -31.2990   25.4610 C.2   220  TRP220      0.2620
    143  O        -21.5620  -30.5690   26.2730 O.2   220  TRP220     -0.2715
    144  CB       -18.6170  -31.4700   24.7760 C.3   220  TRP220      0.0590
    145  CG       -18.0710  -31.1850   26.1580 C.ar  220  TRP220      0.0006
    146  CD1      -17.3610  -30.0840   26.5390 C.ar  220  TRP220      0.0946
    147  CD2      -18.1950  -32.0070   27.3310 C.ar  220  TRP220      0.0152
    148  NE1      -17.0340  -30.1630   27.8700 N.ar  220  TRP220     -0.2442
    149  CE2      -17.5330  -31.3320   28.3820 C.ar  220  TRP220      0.0810
    150  CE3      -18.8000  -33.2440   27.5970 C.ar  220  TRP220      0.0012
    151  CZ2      -17.4580  -31.8530   29.6820 C.ar  220  TRP220      0.0191
    152  CZ3      -18.7280  -33.7620   28.8940 C.ar  220  TRP220      0.0001
    153  CH2      -18.0580  -33.0620   29.9170 C.ar  220  TRP220      0.0015
    154  N        -21.2190  -32.6050   25.3500 N.am  221  GLY221     -0.1940
    155  CA       -22.1470  -33.3070   26.2080 C.3   221  GLY221      0.2014
    156  C        -22.0080  -34.7880   25.8740 C.2   221  GLY221      0.2639
    157  O        -21.4070  -35.1350   24.8630 O.2   221  GLY221     -0.2714
    158  N        -22.5370  -35.6570   26.7220 N.am  222  GLU222     -0.1963
    159  CA       -22.4720  -37.0950   26.4640 C.3   222  GLU222      0.1733
    160  C        -23.8740  -37.5060   26.0190 C.2   222  GLU222      0.2617
    161  O        -24.7790  -37.6290   26.8320 O.2   222  GLU222     -0.2715
    162  CB       -22.0290  -37.8150   27.7430 C.3   222  GLU222      0.0429
    163  CG       -20.5760  -37.4520   28.1080 C.3   222  GLU222      0.1163
    164  CD       -20.2380  -37.6200   29.5780 C.2   222  GLU222      0.3649
    165  OE1      -21.0710  -37.2860   30.4440 O.co2 222  GLU222     -0.2457
    166  OE2      -19.1150  -38.0840   29.8640 O.co2 222  GLU222     -0.2457
    167  N        -24.0440  -37.7040   24.7200 N.am  223  GLY223     -0.1940
    168  CA       -25.3660  -38.0210   24.2060 C.3   223  GLY223      0.2014
    169  C        -26.1040  -36.6870   24.1070 C.2   223  GLY223      0.2639
    170  O        -25.4570  -35.6350   24.0440 O.2   223  GLY223     -0.2714
    171  N        -27.4340  -36.7080   24.0960 N.am  224  CYS224     -0.1967
    172  CA       -28.2190  -35.4750   24.0110 C.3   224  CYS224      0.1712
    173  C        -29.5020  -35.6380   24.7920 C.2   224  CYS224      0.2296
    174  O        -30.2530  -36.5880   24.5690 O.2   224  CYS224     -0.2864
    175  CB       -28.5700  -35.1410   22.5630 C.3   224  CYS224      0.0983
    176  SG       -27.1400  -34.9810   21.4810 S.3   224  CYS224     -0.0798
    177  N        -25.8010  -33.2570   31.4630 N.3   230  TYR230     -0.1227
    178  CA       -26.0070  -31.8370   31.1620 C.3   230  TYR230      0.1736
    179  C        -25.1610  -31.3500   29.9720 C.2   230  TYR230      0.2596
    180  O        -24.1340  -31.9220   29.6310 O.2   230  TYR230     -0.2718
    181  CB       -25.6600  -31.0300   32.4150 C.3   230  TYR230      0.0548
    182  CG       -26.5340  -31.4480   33.5440 C.ar  230  TYR230     -0.0200
    183  CD1      -26.1290  -32.4740   34.3930 C.ar  230  TYR230     -0.0009
    184  CD2      -27.7610  -30.8190   33.7590 C.ar  230  TYR230     -0.0009
    185  CE1      -26.9410  -32.8700   35.4460 C.ar  230  TYR230      0.0417
    186  CE2      -28.5730  -31.2140   34.8110 C.ar  230  TYR230      0.0417
    187  CZ       -28.1680  -32.2350   35.6520 C.ar  230  TYR230      0.1957
    188  OH       -28.9680  -32.6310   36.7050 O.3   230  TYR230     -0.2866
    189  N        -25.6090  -30.2560   29.3640 N.am  231  GLY231     -0.1942
    190  CA       -24.8590  -29.6820   28.2700 C.3   231  GLY231      0.2014
    191  C        -23.7380  -28.8550   28.8760 C.2   231  GLY231      0.2639
    192  O        -23.9270  -28.2400   29.9180 O.2   231  GLY231     -0.2714
    193  N        -22.5710  -28.8720   28.2420 N.am  232  PHE232     -0.1959
    194  CA       -21.4550  -28.0990   28.7230 C.3   232  PHE232      0.1771
    195  C        -21.1350  -27.0230   27.7120 C.2   232  PHE232      0.2619
    196  O        -21.1640  -27.2390   26.5070 O.2   232  PHE232     -0.2715
    197  CB       -20.2580  -29.0360   28.8820 C.3   232  PHE232      0.0574
    198  CG       -20.3290  -29.7270   30.2110 C.ar  232  PHE232     -0.0200
    199  CD1      -20.9470  -30.9670   30.3070 C.ar  232  PHE232     -0.0042
    200  CD2      -19.8070  -29.1150   31.3380 C.ar  232  PHE232     -0.0042
    201  CE1      -21.0410  -31.5960   31.5400 C.ar  232  PHE232     -0.0003
    202  CE2      -19.9050  -29.7520   32.5720 C.ar  232  PHE232     -0.0003
    203  CZ       -20.5210  -30.9920   32.6780 C.ar  232  PHE232     -0.0000
    204  N        -20.8380  -25.8410   28.2380 N.am  233  TYR233     -0.1974
    205  CA       -20.6120  -24.6330   27.4500 C.3   233  TYR233      0.1639
    206  C        -19.2920  -23.9530   27.8230 C.2   233  TYR233      0.2290
    207  O        -18.9190  -23.8580   28.9850 O.2   233  TYR233     -0.2864
    208  CB       -21.7770  -23.6750   27.6970 C.3   233  TYR233      0.0560
    209  CG       -23.0550  -24.3150   27.2860 C.ar  233  TYR233     -0.0198
    210  CD1      -23.7440  -25.1260   28.1820 C.ar  233  TYR233     -0.0009
    211  CD2      -23.5800  -24.0920   26.0120 C.ar  233  TYR233     -0.0009
    212  CE1      -24.9480  -25.7080   27.8130 C.ar  233  TYR233      0.0417
    213  CE2      -24.7840  -24.6730   25.6420 C.ar  233  TYR233      0.0417
    214  CZ       -25.4670  -25.4770   26.5370 C.ar  233  TYR233      0.1957
    215  OH       -26.6770  -26.0410   26.1840 O.3   233  TYR233     -0.2866
@<TRIPOS>BOND
     1    38    39    1
     2    38    37    1
     3    38    41    1
     4    39    40    2
     5    26    25    2
     6    43    42    1
     7    43    44    1
     8    42    41    1
     9    25    24    1
    10    44    45    1
    11   120   118   ar
    12    24    27    1
    13    24    23    1
    14    27    28    1
    15   118   117    1
    16   118   119   ar
    17    14    13    2
    18    33    30   ar
    19    33    35   ar
    20   117   116    1
    21    28    30   ar
    22    28    29   ar
    23    11    12    1
    24    13    12    1
    25    30    32   ar
    26    35    36   ar
    27   115   114    2
    28     4     3    2
    29   114   113    1
    30    29    31   ar
    31    12    15    1
    32    15    16    1
    33     3     2    1
    34   124   123    2
    35   116   113    1
    36    32    31   ar
    37    32    34   ar
    38    36    34   ar
    39   113   112    1
    40    18    16   ar
    41    18    20   ar
    42   126   125    1
    43    16    17   ar
    44   123   122    1
    45     2     1    1
    46     2     5    1
    47   121   122    1
    48     8    10   ar
    49     8     6   ar
    50   112   108   am
    51    20    21   ar
    52   109   108    2
    53   122   125    1
    54    10     9   ar
    55    17    19   ar
    56   108   107    1
    57     5     6    1
    58     6     7   ar
    59    57    59   ar
    60    57    55   ar
    61    59    58   ar
    62   111   110    1
    63   111   176    1
    64   110   107    1
    65     9     7   ar
    66    55    54   ar
    67    55    53   ar
    68    54    52   ar
    69    21    19   ar
    70    21    22    1
    71    58    56   ar
    72   107   106    1
    73    53    56   ar
    74    53    51   ar
    75    52    51   ar
    76    51    50    1
    77   106   103   am
    78    50    47    1
    79   176   175    1
    80   130   129    2
    81   131   133    1
    82   131   132    1
    83   131   128    1
    84   103   102    1
    85   103   104    2
    86   137   136    2
    87   102   105    1
    88   102   101    1
    89   175   172    1
    90   129   128    1
    91   129   134   am
    92    47    48    1
    93    47    46    1
    94   127   128    1
    95    49    48    2
    96    84    82    1
    97    96    95    2
    98    83    82    1
    99   136   135    1
   100   136   140   am
   101   135   134    1
   102   135   138    1
   103   101    95   am
   104    82    81    1
   105    95    94    1
   106   172   171    1
   107   172   173    1
   108   170   169    2
   109   171   169   am
   110   169   168    1
   111   168   167    1
   112   141   140    1
   113   141   144    1
   114   141   142    1
   115   139   138    1
   116   174   173    2
   117   167   160   am
   118   144   145    1
   119   157   156    2
   120    81    78    1
   121    93    94    1
   122    94    97    1
   123   154   142   am
   124   154   155    1
   125   142   143    2
   126    78    79    1
   127    78    77    1
   128    97    98    1
   129   213   211   ar
   130   213   214   ar
   131   156   155    1
   132   156   158   am
   133    98    99   ar
   134    98   100   ar
   135   211   209   ar
   136   160   159    1
   137   160   161    2
   138    80    79    2
   139   145   146   ar
   140   145   147   ar
   141   215   214    1
   142    60    61    1
   143    77    71   am
   144   159   158    1
   145   159   162    1
   146   196   195    2
   147   214   212   ar
   148   146   148   ar
   149   209   208    1
   150   209   210   ar
   151   147   150   ar
   152   147   149   ar
   153    71    72    2
   154    71    70    1
   155    61    62    1
   156    61    64    1
   157   205   208    1
   158   205   206    1
   159   205   204    1
   160   150   152   ar
   161    62    63    2
   162    62    69   am
   163   195   204   am
   164   195   194    1
   165   162   163    1
   166   212   210   ar
   167   206   207    2
   168    69    70    1
   169   148   149   ar
   170   163   164    1
   171    70    73    1
   172   193   194    1
   173   193   191   am
   174   190   191    1
   175   190   189    1
   176   149   151   ar
   177    64    65    1
   178   194   197    1
   179   191   192    2
   180   197   198    1
   181   152   153   ar
   182    75    74    2
   183   189   179   am
   184   164   166   ar
   185   164   165   ar
   186   180   179    2
   187    73    74    1
   188   151   153   ar
   189    92    90    1
   190    65    66    1
   191   179   178    1
   192    74    76   am
   193   198   199   ar
   194   198   200   ar
   195    90    89    1
   196   199   201   ar
   197    91    89    1
   198    67    66   ar
   199   178   177    1
   200   178   181    1
   201    66    68   ar
   202    89    86    1
   203   200   202   ar
   204   201   203   ar
   205   181   182    1
   206    86    85    1
   207    86    87    1
   208   202   203   ar
   209   182   184   ar
   210   182   183   ar
   211    87    88    2
   212   184   186   ar
   213   183   185   ar
   214   186   187   ar
   215   185   187   ar
   216   187   188    1
