@<TRIPOS>MOLECULE
tmp/1d5cA00.pdb
 176 171 0 0 0
SMALL
GASTEIGER

@<TRIPOS>ATOM
      1  N         22.5720    9.2610    8.9500 N.3    10  GLN10      -0.1231
      2  CA        21.9840   10.2500    9.8420 C.3    10  GLN10       0.1698
      3  C         22.4560   10.0350   11.2820 C.2    10  GLN10       0.2592
      4  O         22.5960    8.9000   11.7390 O.2    10  GLN10      -0.2718
      5  CB        20.4580   10.1270    9.7690 C.3    10  GLN10       0.0381
      6  CG        19.6660   11.0560   10.6740 C.3    10  GLN10       0.0905
      7  CD        19.7330   12.5040   10.2310 C.2    10  GLN10       0.2608
      8  OE1       19.7920   12.7970    9.0370 O.2    10  GLN10      -0.2717
      9  NE2       19.7030   13.4200   11.1930 N.am   10  GLN10      -0.0878
     10  N         22.7220   11.1320   11.9800 N.am   11  ALA11      -0.1966
     11  CA        23.1360   11.0890   13.3820 C.3    11  ALA11       0.1728
     12  C         24.5550   10.6180   13.7160 C.2    11  ALA11       0.2616
     13  O         24.8500   10.3590   14.8830 O.2    11  ALA11      -0.2715
     14  CB        22.1160   10.2620   14.1950 C.3    11  ALA11       0.0334
     15  N         25.4400   10.5160   12.7260 N.am   12  VAL12      -0.1963
     16  CA        26.8060   10.0720   13.0140 C.3    12  VAL12       0.1727
     17  C         27.6850   11.2100   13.5140 C.2    12  VAL12       0.2617
     18  O         28.7380   10.9700   14.1000 O.2    12  VAL12      -0.2715
     19  CB        27.4830    9.4380   11.7770 C.3    12  VAL12       0.0290
     20  CG1       26.7120    8.2030   11.3390 C.3    12  VAL12       0.0023
     21  CG2       27.5780   10.4510   10.6570 C.3    12  VAL12       0.0023
     22  N         27.2720   12.4480   13.2670 N.am   13  GLY13      -0.1940
     23  CA        28.0510   13.5810   13.7350 C.3    13  GLY13       0.2014
     24  C         28.5710   14.5620   12.6930 C.2    13  GLY13       0.2639
     25  O         29.4510   15.3640   12.9990 O.2    13  GLY13      -0.2714
     26  N         28.0390   14.5210   11.4750 N.am   14  LYS14      -0.1963
     27  CA        28.4940   15.4340   10.4270 C.3    14  LYS14       0.1728
     28  C         28.3530   16.8980   10.8300 C.2    14  LYS14       0.2617
     29  O         29.3190   17.6550   10.8110 O.2    14  LYS14      -0.2715
     30  CB        27.7210   15.1860    9.1250 C.3    14  LYS14       0.0311
     31  CG        27.9270   13.7950    8.5320 C.3    14  LYS14       0.0038
     32  CD        27.1640   13.6150    7.2190 C.3    14  LYS14       0.0206
     33  CE        25.6460   13.7740    7.4100 C.3    14  LYS14       0.1093
     34  NZ        25.0540   12.7430    8.3270 N.3    14  LYS14      -0.1314
     35  N         27.1410   17.2950   11.1950 N.am   15  THR15      -0.1937
     36  CA        26.8850   18.6710   11.5880 C.3    15  THR15       0.2028
     37  C         27.7470   19.0790   12.7860 C.2    15  THR15       0.2642
     38  O         28.2970   20.1840   12.8170 O.2    15  THR15      -0.2714
     39  CB        25.3870   18.8670   11.9300 C.3    15  THR15       0.1808
     40  OG1       24.5870   18.5250   10.7840 O.3    15  THR15      -0.2208
     41  CG2       25.1080   20.3180   12.3380 C.3    15  THR15       0.0379
     42  N         27.8720   18.1900   13.7660 N.am   16  SER16      -0.1949
     43  CA        28.6630   18.4880   14.9570 C.3    16  SER16       0.1924
     44  C         30.1480   18.6540   14.6460 C.2    16  SER16       0.2314
     45  O         30.7910   19.5680   15.1610 O.2    16  SER16      -0.2863
     46  CB        28.4680   17.3980   16.0100 C.3    16  SER16       0.2116
     47  OG        27.1290   17.3820   16.4800 O.3    16  SER16      -0.2180
     48  N         30.3620   23.0070   20.8720 N.3    25  PHE25      -0.1227
     49  CA        29.5690   21.7920   20.7780 C.3    25  PHE25       0.1736
     50  C         28.2740   21.9610   21.5620 C.2    25  PHE25       0.2595
     51  O         28.2930   22.3290   22.7360 O.2    25  PHE25      -0.2718
     52  CB        30.3440   20.6000   21.3370 C.3    25  PHE25       0.0547
     53  CG        29.5850   19.3090   21.2700 C.ar   25  PHE25      -0.0202
     54  CD1       29.5790   18.5490   20.1070 C.ar   25  PHE25      -0.0042
     55  CD2       28.8510   18.8660   22.3610 C.ar   25  PHE25      -0.0042
     56  CE1       28.8490   17.3670   20.0290 C.ar   25  PHE25      -0.0003
     57  CE2       28.1150   17.6820   22.2940 C.ar   25  PHE25      -0.0003
     58  CZ        28.1150   16.9310   21.1230 C.ar   25  PHE25      -0.0000
     59  N         27.1520   21.6780   20.9100 N.am   26  ASP26      -0.1960
     60  CA        25.8390   21.7960   21.5350 C.3    26  ASP26       0.1840
     61  C         25.4870   20.4860   22.2390 C.2    26  ASP26       0.2622
     62  O         24.9410   19.5700   21.6270 O.2    26  ASP26      -0.2715
     63  CB        24.7860   22.1060   20.4700 C.3    26  ASP26       0.1450
     64  CG        23.5050   22.6730   21.0570 C.2    26  ASP26       0.3671
     65  OD1       23.0230   22.1390   22.0840 O.co2  26  ASP26      -0.2456
     66  OD2       22.9730   23.6470   20.4800 O.co2  26  ASP26      -0.2456
     67  N         25.8010   20.4070   23.5270 N.am   27  ASN27      -0.1972
     68  CA        25.5300   19.2130   24.3170 C.3    27  ASN27       0.1688
     69  C         24.0370   18.8940   24.4000 C.2    27  ASN27       0.2292
     70  O         23.6490   17.7720   24.7340 O.2    27  ASN27      -0.2864
     71  CB        26.0920   19.3840   25.7280 C.3    27  ASN27       0.1181
     72  CG        26.1130   18.0850   26.5110 C.2    27  ASN27       0.2629
     73  OD1       26.4420   18.0690   27.6980 O.2    27  ASN27      -0.2716
     74  ND2       25.7700   16.9890   25.8500 N.am   27  ASN27      -0.0877
     75  N         22.0050   19.5850   21.7380 N.3    29  TYR29      -0.1227
     76  CA        21.5630   19.4880   20.3500 C.3    29  TYR29       0.1736
     77  C         20.9030   18.1590   19.9910 C.2    29  TYR29       0.2595
     78  O         21.5510   17.1100   19.9830 O.2    29  TYR29      -0.2718
     79  CB        22.7450   19.7370   19.4070 C.3    29  TYR29       0.0548
     80  CG        22.3840   19.6940   17.9390 C.ar   29  TYR29      -0.0200
     81  CD1       21.5570   20.6650   17.3730 C.ar   29  TYR29      -0.0009
     82  CD2       22.8650   18.6760   17.1180 C.ar   29  TYR29      -0.0009
     83  CE1       21.2190   20.6210   16.0210 C.ar   29  TYR29       0.0417
     84  CE2       22.5330   18.6240   15.7700 C.ar   29  TYR29       0.0417
     85  CZ        21.7130   19.5970   15.2270 C.ar   29  TYR29       0.1957
     86  OH        21.3960   19.5430   13.8900 O.3    29  TYR29      -0.2866
     87  N         19.6110   18.2110   19.6860 N.am   30  GLN30      -0.1965
     88  CA        18.8760   17.0150   19.3100 C.3    30  GLN30       0.1733
     89  C         18.7720   16.9030   17.7920 C.2    30  GLN30       0.2617
     90  O         18.0300   17.6480   17.1500 O.2    30  GLN30      -0.2715
     91  CB        17.4780   17.0290   19.9340 C.3    30  GLN30       0.0408
     92  CG        17.4720   16.9380   21.4550 C.3    30  GLN30       0.0908
     93  CD        16.0740   16.7910   22.0300 C.2    30  GLN30       0.2608
     94  OE1       15.8950   16.7060   23.2460 O.2    30  GLN30      -0.2717
     95  NE2       15.0740   16.7580   21.1560 N.am   30  GLN30      -0.0878
     96  N         19.5460   15.9710   17.2410 N.am   31  SER31      -0.1936
     97  CA        19.6120   15.6690   15.8060 C.3    31  SER31       0.2055
     98  C         18.5660   16.3400   14.9080 C.2    31  SER31       0.2643
     99  O         17.3820   16.4020   15.2450 O.2    31  SER31      -0.2714
    100  CB        19.5250   14.1530   15.6130 C.3    31  SER31       0.2130
    101  OG        20.5160   13.4800   16.3690 O.3    31  SER31      -0.2179
    102  N         19.0050   16.8140   13.7470 N.am   32  THR32      -0.1950
    103  CA        18.1010   17.4680   12.8160 C.3    32  THR32       0.1897
    104  C         18.2910   16.9830   11.3860 C.2    32  THR32       0.2313
    105  O         19.2410   16.2720   11.0660 O.2    32  THR32      -0.2863
    106  CB        18.3020   18.9900   12.8130 C.3    32  THR32       0.1794
    107  OG1       19.5590   19.3010   12.2010 O.3    32  THR32      -0.2208
    108  CG2       18.2900   19.5320   14.2310 C.3    32  THR32       0.0378
    109  N         27.3270   20.4630    4.2490 N.3    55  ASP55      -0.1225
    110  CA        26.7480   19.5680    5.2490 C.3    55  ASP55       0.1805
    111  C         25.5210   18.9510    4.5730 C.2    55  ASP55       0.2598
    112  O         24.5890   19.6610    4.2110 O.2    55  ASP55      -0.2718
    113  CB        26.3360   20.3830    6.4790 C.3    55  ASP55       0.1424
    114  CG        25.9920   19.5160    7.6750 C.2    55  ASP55       0.3668
    115  OD1       26.2480   18.2910    7.6250 O.co2  55  ASP55      -0.2456
    116  OD2       25.4720   20.0670    8.6740 O.co2  55  ASP55      -0.2456
    117  N         25.5140   17.6330    4.4060 N.am   56  THR56      -0.1953
    118  CA        24.4080   16.9750    3.7180 C.3    56  THR56       0.1897
    119  C         23.3950   16.2360    4.5870 C.2    56  THR56       0.2313
    120  O         23.5700   16.0990    5.7940 O.2    56  THR56      -0.2863
    121  CB        24.9460   15.9800    2.6670 C.3    56  THR56       0.1794
    122  OG1       25.6260   14.9090    3.3320 O.3    56  THR56      -0.2208
    123  CG2       25.9170   16.6760    1.7230 C.3    56  THR56       0.0378
    124  N         33.6430    8.8470   14.1960 N.3   113  ASN113     -0.1225
    125  CA        33.3240    9.8590   15.2090 C.3   113  ASN113      0.1785
    126  C         32.7710    9.2990   16.5180 C.2   113  ASN113      0.2597
    127  O         32.3600    8.1410   16.5840 O.2   113  ASN113     -0.2718
    128  CB        32.3220   10.8660   14.6350 C.3   113  ASN113      0.1169
    129  CG        32.0810   12.0490   15.5560 C.2   113  ASN113      0.2627
    130  OD1       30.9320   12.4160   15.8210 O.2   113  ASN113     -0.2716
    131  ND2       33.1590   12.6640   16.0360 N.am  113  ASN113     -0.0877
    132  N         32.7690   10.1490   17.5470 N.am  114  LYS114     -0.1980
    133  CA        32.2690    9.8290   18.8880 C.3   114  LYS114      0.1596
    134  C         33.2360    8.9670   19.6970 C.2   114  LYS114      0.2287
    135  O         32.8510    8.0050   20.3680 O.2   114  LYS114     -0.2864
    136  CB        30.8950    9.1520   18.7980 C.3   114  LYS114      0.0298
    137  CG        29.8380   10.0380   18.1320 C.3   114  LYS114      0.0038
    138  CD        28.4500    9.4290   18.2190 C.3   114  LYS114      0.0206
    139  CE        27.4180   10.2910   17.5010 C.3   114  LYS114      0.1093
    140  NZ        26.0690    9.6470   17.5330 N.3   114  LYS114     -0.1314
    141  N         34.6320    9.7100   22.3450 N.3   116  ASP116     -0.1225
    142  CA        34.4760    9.9350   23.7830 C.3   116  ASP116      0.1805
    143  C         33.5580    8.8880   24.4180 C.2   116  ASP116      0.2597
    144  O         33.3250    8.9200   25.6230 O.2   116  ASP116     -0.2718
    145  CB        33.9100   11.3310   24.0570 C.3   116  ASP116      0.1424
    146  CG        32.6800   11.6380   23.2150 C.2   116  ASP116      0.3668
    147  OD1       32.8270   11.7740   21.9820 O.co2 116  ASP116     -0.2456
    148  OD2       31.5690   11.7390   23.7820 O.co2 116  ASP116     -0.2456
    149  N         33.0340    7.9740   23.6050 N.am  117  LEU117     -0.1979
    150  CA        32.1520    6.9150   24.0900 C.3   117  LEU117      0.1596
    151  C         32.8260    5.5670   23.8490 C.2   117  LEU117      0.2287
    152  O         32.1920    4.6240   23.3700 O.2   117  LEU117     -0.2864
    153  CB        30.8240    6.9330   23.3360 C.3   117  LEU117      0.0297
    154  CG        30.0040    8.2260   23.2660 C.3   117  LEU117      0.0022
    155  CD1       28.7410    7.9780   22.4390 C.3   117  LEU117      0.0001
    156  CD2       29.6380    8.6820   24.6640 C.3   117  LEU117      0.0001
    157  N         36.1410   13.1750   17.9410 N.3   141  SER141     -0.1202
    158  CA        35.1270   13.3930   18.9550 C.3   141  SER141      0.2020
    159  C         34.7570   14.8490   18.8540 C.2   141  SER141      0.2619
    160  O         35.5530   15.7120   19.2120 O.2   141  SER141     -0.2717
    161  CB        35.6460   13.1180   20.3640 C.3   141  SER141      0.2103
    162  OG        34.6390   13.4350   21.3150 O.3   141  SER141     -0.2182
    163  N         33.5600   15.1280   18.3500 N.am  142  ALA142     -0.1965
    164  CA        33.1060   16.5030   18.2330 C.3   142  ALA142      0.1728
    165  C         32.7140   17.0210   19.6210 C.2   142  ALA142      0.2616
    166  O         32.8690   18.2010   19.9190 O.2   142  ALA142     -0.2715
    167  CB        31.9160   16.5910   17.2740 C.3   142  ALA142      0.0334
    168  N         32.2180   16.1280   20.4690 N.am  143  LYS143     -0.1977
    169  CA        31.8000   16.5090   21.8180 C.3   143  LYS143      0.1596
    170  C         32.9750   17.0130   22.6400 C.2   143  LYS143      0.2287
    171  O         32.9380   18.1180   23.1750 O.2   143  LYS143     -0.2864
    172  CB        31.1530   15.3200   22.5290 C.3   143  LYS143      0.0298
    173  CG        30.5630   15.6460   23.8990 C.3   143  LYS143      0.0038
    174  CD        29.7970   14.4470   24.4500 C.3   143  LYS143      0.0206
    175  CE        29.0150   14.7940   25.7210 C.3   143  LYS143      0.1093
    176  NZ        29.9030   15.1550   26.8650 N.3   143  LYS143     -0.1314
@<TRIPOS>BOND
     1   123   121    1
     2   121   122    1
     3   121   118    1
     4   118   117    1
     5   118   119    1
     6   112   111    2
     7   109   110    1
     8   117   111   am
     9   111   110    1
    10   119   120    2
    11   110   113    1
    12   113   114    1
    13    32    33    1
    14    32    31    1
    15    33    34    1
    16   115   114   ar
    17   114   116   ar
    18    31    30    1
    19     1     2    1
    20     8     7    2
    21    30    27    1
    22     5     2    1
    23     5     6    1
    24     2     3    1
    25     7     6    1
    26     7     9   am
    27    27    28    1
    28    27    26    1
    29    21    19    1
    30    40    39    1
    31    29    28    2
    32    28    35   am
    33   105   104    2
    34    35    36    1
    35     3     4    2
    36     3    10   am
    37    20    19    1
    38   104   103    1
    39    26    24   am
    40    36    39    1
    41    36    37    1
    42    19    16    1
    43    39    41    1
    44    10    11    1
    45   107   106    1
    46    24    25    2
    47    24    23    1
    48    15    16    1
    49    15    12   am
    50    37    38    2
    51    37    42   am
    52   106   103    1
    53   106   108    1
    54   103   102    1
    55    16    17    1
    56    22    17   am
    57    22    23    1
    58    11    12    1
    59    11    14    1
    60    17    18    2
    61    12    13    2
    62   102    98   am
    63    42    43    1
    64    86    85    1
    65   124   125    1
    66   128   125    1
    67   128   129    1
    68    44    43    1
    69    44    45    2
    70    98    99    2
    71    98    97    1
    72    43    46    1
    73   125   126    1
    74    85    84   ar
    75    85    83   ar
    76   129   130    2
    77   129   131   am
    78   100    97    1
    79   100   101    1
    80    84    82   ar
    81    97    96    1
    82    46    47    1
    83    83    81   ar
    84   126   127    2
    85   126   132   am
    86    82    80   ar
    87    90    89    2
    88    96    89   am
    89   167   164    1
    90    81    80   ar
    91   139   140    1
    92   139   138    1
    93   132   133    1
    94    89    88    1
    95    80    79    1
    96   157   158    1
    97   137   138    1
    98   137   136    1
    99   164   163    1
   100   164   165    1
   101   163   159   am
   102   136   133    1
   103   159   158    1
   104   159   160    2
   105   133   134    1
   106   158   161    1
   107    88    87    1
   108    88    91    1
   109    79    76    1
   110   165   166    2
   111   165   168   am
   112    87    77   am
   113   134   135    2
   114    91    92    1
   115    78    77    2
   116    77    76    1
   117    56    54   ar
   118    56    58   ar
   119    54    53   ar
   120    76    75    1
   121   161   162    1
   122   168   169    1
   123    63    64    1
   124    63    60    1
   125    66    64   ar
   126    49    48    1
   127    49    52    1
   128    49    50    1
   129    59    60    1
   130    59    50   am
   131    64    65   ar
   132    58    57   ar
   133    95    93   am
   134    53    52    1
   135    53    55   ar
   136    92    93    1
   137    60    61    1
   138    50    51    2
   139    62    61    2
   140   169   172    1
   141   169   170    1
   142   147   146   ar
   143    93    94    2
   144    61    67   am
   145    57    55   ar
   146   141   142    1
   147   155   154    1
   148   172   173    1
   149   170   171    2
   150   146   148   ar
   151   146   145    1
   152   154   153    1
   153   154   156    1
   154   153   150    1
   155   152   151    2
   156    67    68    1
   157   149   150    1
   158   149   143   am
   159   142   145    1
   160   142   143    1
   161   151   150    1
   162   173   174    1
   163    68    69    1
   164    68    71    1
   165    69    70    2
   166   143   144    2
   167   174   175    1
   168   175   176    1
   169    71    72    1
   170    74    72   am
   171    72    73    2
