@<TRIPOS>MOLECULE
tmp/1d5jA00.pdb
 132 131 0 0 0
SMALL
GASTEIGER

@<TRIPOS>ATOM
      1  N        -14.5680   23.1790   32.6490 N.3    80  ASN80      -0.1225
      2  CA       -14.1570   23.6980   31.3430 C.3    80  ASN80       0.1785
      3  C        -12.6450   23.9610   31.2880 C.2    80  ASN80       0.2597
      4  O        -11.8770   23.0070   31.3850 O.2    80  ASN80      -0.2718
      5  CB       -15.0180   24.8930   30.9570 C.3    80  ASN80       0.1169
      6  CG       -16.4760   24.5150   30.8040 C.2    80  ASN80       0.2627
      7  OD1      -16.8320   23.6450   30.0070 O.2    80  ASN80      -0.2716
      8  ND2      -17.3330   25.1150   31.6200 N.am   80  ASN80      -0.0877
      9  N        -12.1690   25.1920   31.1450 N.am   81  VAL81      -0.1966
     10  CA       -10.6970   25.3270   31.1500 C.3    81  VAL81       0.1727
     11  C        -10.1380   24.9380   32.5280 C.2    81  VAL81       0.2616
     12  O        -10.4740   25.5690   33.5440 O.2    81  VAL81      -0.2715
     13  CB       -10.1960   26.7440   30.7990 C.3    81  VAL81       0.0290
     14  CG1       -8.6780   26.8080   30.9960 C.3    81  VAL81       0.0023
     15  CG2      -10.5400   27.0960   29.3730 C.3    81  VAL81       0.0023
     16  N         -9.3820   23.8420   32.5650 N.am   82  LEU82      -0.1963
     17  CA        -8.7600   23.3480   33.7940 C.3    82  LEU82       0.1728
     18  C         -7.4290   24.0290   34.0770 C.2    82  LEU82       0.2616
     19  O         -7.0960   24.2850   35.2480 O.2    82  LEU82      -0.2715
     20  CB        -8.5200   21.8380   33.7250 C.3    82  LEU82       0.0311
     21  CG        -9.6800   20.8870   33.4510 C.3    82  LEU82       0.0022
     22  CD1       -9.1760   19.4530   33.4930 C.3    82  LEU82       0.0001
     23  CD2      -10.7800   21.0860   34.4830 C.3    82  LEU82       0.0001
     24  N         -6.6790   24.3200   33.0240 N.am   83  ALA83      -0.1963
     25  CA        -5.3810   24.9650   33.1930 C.3    83  ALA83       0.1728
     26  C         -4.7870   25.2330   31.8250 C.2    83  ALA83       0.2616
     27  O         -5.0460   24.5010   30.8710 O.2    83  ALA83      -0.2715
     28  CB        -4.4490   24.0570   33.9680 C.3    83  ALA83       0.0334
     29  N         -3.9550   26.2590   31.7240 N.am   84  HIS84      -0.1959
     30  CA        -3.3390   26.5510   30.4440 C.3    84  HIS84       0.1787
     31  C         -1.8540   26.8160   30.6720 C.2    84  HIS84       0.2620
     32  O         -1.4460   27.0880   31.7970 O.2    84  HIS84      -0.2715
     33  CB        -4.0560   27.7150   29.7400 C.3    84  HIS84       0.0785
     34  CG        -4.0310   29.0080   30.4820 C.ar   84  HIS84       0.0821
     35  ND1       -5.1100   29.7920   30.2350 N.ar   84  HIS84      -0.2267
     36  CD2       -3.1690   29.6980   31.3410 C.ar   84  HIS84       0.1154
     37  CE1       -4.9020   30.9260   30.9310 C.ar   84  HIS84       0.1986
     38  NE2       -3.7480   30.8980   31.6020 N.ar   84  HIS84      -0.2212
     39  N         -1.0420   26.7100   29.6250 N.am   85  ALA85      -0.1977
     40  CA         0.4000   26.9350   29.7600 C.3    85  ALA85       0.1597
     41  C          1.0280   27.4520   28.4630 C.2    85  ALA85       0.2287
     42  O          0.4510   27.3170   27.3880 O.2    85  ALA85      -0.2864
     43  CB         1.0790   25.6550   30.2050 C.3    85  ALA85       0.0319
     44  N         -1.8270   14.1120   36.4950 N.3   115  LEU115     -0.1231
     45  CA        -2.2920   13.9380   35.1210 C.3   115  LEU115      0.1693
     46  C         -2.4050   15.2610   34.3500 C.2   115  LEU115      0.2591
     47  O         -1.9420   15.3780   33.2170 O.2   115  LEU115     -0.2718
     48  CB        -3.6420   13.2060   35.1440 C.3   115  LEU115      0.0284
     49  CG        -4.3050   12.8170   33.8260 C.3   115  LEU115      0.0019
     50  CD1       -3.4450   11.7890   33.1050 C.3   115  LEU115      0.0001
     51  CD2       -5.6840   12.2500   34.0980 C.3   115  LEU115      0.0001
     52  N         -3.0410   16.2590   34.9670 N.am  116  VAL116     -0.1980
     53  CA        -3.1910   17.5560   34.3190 C.3   116  VAL116      0.1595
     54  C         -1.8640   18.3120   34.2890 C.2   116  VAL116      0.2287
     55  O         -1.6170   19.1030   33.3800 O.2   116  VAL116     -0.2864
     56  CB        -4.3070   18.4170   34.9750 C.3   116  VAL116      0.0276
     57  CG1       -4.3210   19.8160   34.3680 C.3   116  VAL116      0.0022
     58  CG2       -5.6650   17.7600   34.7770 C.3   116  VAL116      0.0022
     59  N          0.6230   16.9980   31.3520 N.3   119  HIS119     -0.1226
     60  CA         0.1230   17.5670   30.1020 C.3   119  HIS119      0.1752
     61  C          0.4400   19.0580   29.9550 C.2   119  HIS119      0.2595
     62  O          0.8750   19.4960   28.8930 O.2   119  HIS119     -0.2718
     63  CB        -1.3870   17.2900   29.9810 C.3   119  HIS119      0.0759
     64  CG        -2.2440   17.9730   28.9460 C.ar  119  HIS119      0.0818
     65  ND1       -2.7480   17.3320   27.8630 N.ar  119  HIS119     -0.2268
     66  CD2       -2.5040   19.3410   28.8130 C.ar  119  HIS119      0.1154
     67  CE1       -3.3010   18.2930   27.0970 C.ar  119  HIS119      0.1986
     68  NE2       -3.1700   19.5050   27.6420 N.ar  119  HIS119     -0.2212
     69  N          0.2710   19.8320   31.0150 N.am  120  GLU120     -0.1979
     70  CA         0.5930   21.2600   30.9250 C.3   120  GLU120      0.1602
     71  C          2.0860   21.4770   30.7700 C.2   120  GLU120      0.2287
     72  O          2.5240   22.3600   30.0420 O.2   120  GLU120     -0.2864
     73  CB         0.0930   22.0200   32.1560 C.3   120  GLU120      0.0415
     74  CG        -1.4080   21.9910   32.2890 C.3   120  GLU120      0.1163
     75  CD        -2.1040   22.5750   31.0670 C.2   120  GLU120      0.3649
     76  OE1       -1.7530   23.6960   30.6540 O.co2 120  GLU120     -0.2457
     77  OE2       -2.9760   21.8830   30.4940 O.co2 120  GLU120     -0.2457
     78  N          3.4440   21.2880   27.4440 N.3   123  HIS123     -0.1241
     79  CA         3.2260   22.5460   26.7370 C.3   123  HIS123      0.1621
     80  C          4.4490   23.4070   26.9420 C.2   123  HIS123      0.2264
     81  O          5.0500   23.8950   25.9860 O.2   123  HIS123     -0.2867
     82  CB         1.9790   23.2760   27.2560 C.3   123  HIS123      0.0745
     83  CG         0.6990   22.7940   26.6340 C.ar  123  HIS123      0.0817
     84  ND1        0.6080   22.4020   25.3220 N.ar  123  HIS123     -0.2268
     85  CD2       -0.5370   22.6350   27.1640 C.ar  123  HIS123      0.1154
     86  CE1       -0.6290   22.0100   25.0580 C.ar  123  HIS123      0.1986
     87  NE2       -1.3460   22.1410   26.1610 N.ar  123  HIS123     -0.2212
     88  N         -1.5120   20.0760   21.1690 N.3   129  HIS129     -0.1241
     89  CA        -2.4350   18.9590   21.2880 C.3   129  HIS129      0.1621
     90  C         -2.3130   17.8360   20.2690 C.2   129  HIS129      0.2264
     91  O         -1.9920   18.0580   19.1020 O.2   129  HIS129     -0.2867
     92  CB        -3.8640   19.4790   21.3890 C.3   129  HIS129      0.0745
     93  CG        -4.0820   20.3040   22.6170 C.ar  129  HIS129      0.0817
     94  ND1       -4.6560   21.5600   22.5930 N.ar  129  HIS129     -0.2268
     95  CD2       -3.7360   20.0770   23.9050 C.ar  129  HIS129      0.1154
     96  CE1       -4.6400   22.0670   23.8120 C.ar  129  HIS129      0.1986
     97  NE2       -4.0890   21.1880   24.6220 N.ar  129  HIS129     -0.2212
     98  N         -1.4480   11.4160   26.1510 N.3   136  LEU136     -0.1245
     99  CA        -1.5610   12.3380   27.2740 C.3   136  LEU136      0.1561
    100  C         -1.7340   13.7720   26.7740 C.2   136  LEU136      0.2260
    101  O         -2.2760   14.6170   27.4720 O.2   136  LEU136     -0.2867
    102  CB        -0.3200   12.2700   28.1800 C.3   136  LEU136      0.0270
    103  CG        -0.2550   13.3100   29.3010 C.3   136  LEU136      0.0019
    104  CD1       -1.2030   12.9400   30.4330 C.3   136  LEU136      0.0001
    105  CD2        1.1540   13.4450   29.8180 C.3   136  LEU136      0.0001
    106  N         -6.4750   16.7650   24.2380 N.3   139  PRO139     -0.2102
    107  CA        -7.1310   17.7450   25.1510 C.3   139  PRO139      0.1504
    108  C         -7.9460   17.0030   26.2180 C.2   139  PRO139      0.2576
    109  O         -8.9020   17.5040   26.7900 O.2   139  PRO139     -0.2718
    110  CB        -8.1090   18.4510   24.2320 C.3   139  PRO139      0.0282
    111  CG        -7.5000   18.3950   22.8940 C.3   139  PRO139      0.0208
    112  CD        -6.6910   17.1080   22.8240 C.3   139  PRO139      0.0893
    113  N         -7.5510   15.7580   26.4080 N.am  140  LEU140     -0.1966
    114  CA        -8.1200   14.7240   27.2320 C.3   140  LEU140      0.1728
    115  C         -8.3320   14.7580   28.6850 C.2   140  LEU140      0.2616
    116  O         -7.5080   14.2640   29.4790 O.2   140  LEU140     -0.2715
    117  CB        -7.4070   13.4110   26.9280 C.3   140  LEU140      0.0311
    118  CG        -7.9220   12.1640   27.6410 C.3   140  LEU140      0.0022
    119  CD1       -9.3330   11.8910   27.2210 C.3   140  LEU140      0.0001
    120  CD2       -7.0410   11.0000   27.2940 C.3   140  LEU140      0.0001
    121  N         -9.4840   15.2270   29.0860 N.am  141  TYR141     -0.1974
    122  CA        -9.6580   15.0780   30.4820 C.3   141  TYR141      0.1639
    123  C        -10.7100   14.0150   30.7570 C.2   141  TYR141      0.2290
    124  O        -11.8520   14.1040   30.3180 O.2   141  TYR141     -0.2864
    125  CB        -9.9800   16.4400   31.1250 C.3   141  TYR141      0.0560
    126  CG        -9.4420   16.0690   32.4610 C.ar  141  TYR141     -0.0198
    127  CD1       -8.1470   15.7210   32.8480 C.ar  141  TYR141     -0.0009
    128  CD2      -10.5180   15.7320   33.2760 C.ar  141  TYR141     -0.0009
    129  CE1       -7.9340   15.0430   34.0390 C.ar  141  TYR141      0.0417
    130  CE2      -10.3060   15.0460   34.4630 C.ar  141  TYR141      0.0417
    131  CZ        -9.0060   14.7100   34.8460 C.ar  141  TYR141      0.1957
    132  OH        -8.8030   14.0270   36.0300 O.3   141  TYR141     -0.2866
@<TRIPOS>BOND
     1    91    90    2
     2    90    89    1
     3    88    89    1
     4    89    92    1
     5    92    93    1
     6    94    93   ar
     7    94    96   ar
     8    93    95   ar
     9   112   111    1
    10   112   106    1
    11   111   110    1
    12    96    97   ar
    13    95    97   ar
    14   110   107    1
    15   106   107    1
    16    86    84   ar
    17    86    87   ar
    18   107   108    1
    19    84    83   ar
    20    81    80    2
    21    98    99    1
    22    87    85   ar
    23   108   113   am
    24   108   109    2
    25   113   114    1
    26    83    85   ar
    27    83    82    1
    28    79    80    1
    29    79    82    1
    30    79    78    1
    31   100    99    1
    32   100   101    2
    33   117   114    1
    34   117   118    1
    35    67    68   ar
    36    67    65   ar
    37   119   118    1
    38   114   115    1
    39    99   102    1
    40   120   118    1
    41    42    41    2
    42    68    66   ar
    43    65    64   ar
    44   102   103    1
    45    41    40    1
    46   115   121   am
    47   115   116    2
    48    66    64   ar
    49    62    61    2
    50    64    63    1
    51   121   122    1
    52   103   105    1
    53   103   104    1
    54    15    13    1
    55    39    40    1
    56    39    31   am
    57    33    30    1
    58    33    34    1
    59    40    43    1
    60    61    60    1
    61    61    69   am
    62    63    60    1
    63     7     6    2
    64    72    71    2
    65    60    59    1
    66    35    34   ar
    67    35    37   ar
    68   124   123    2
    69    30    31    1
    70    30    29    1
    71   122   123    1
    72   122   125    1
    73    34    36   ar
    74    77    75   ar
    75    76    75   ar
    76    31    32    2
    77    71    70    1
    78    13    14    1
    79    13    10    1
    80     6     5    1
    81     6     8   am
    82    27    26    2
    83    70    69    1
    84    70    73    1
    85    37    38   ar
    86     5     2    1
    87    75    74    1
    88   125   126    1
    89     9    10    1
    90     9     3   am
    91    10    11    1
    92     3     2    1
    93     3     4    2
    94    36    38   ar
    95     2     1    1
    96    29    26   am
    97    26    25    1
    98    73    74    1
    99   126   127   ar
   100   126   128   ar
   101    11    16   am
   102    11    12    2
   103    16    17    1
   104   127   129   ar
   105    24    25    1
   106    24    18   am
   107    50    49    1
   108    25    28    1
   109    47    46    2
   110   128   130   ar
   111    55    54    2
   112    21    22    1
   113    21    20    1
   114    21    23    1
   115    20    17    1
   116    17    18    1
   117    49    51    1
   118    49    48    1
   119   129   131   ar
   120    18    19    2
   121    54    53    1
   122    53    52    1
   123    53    56    1
   124    46    52   am
   125    46    45    1
   126    57    56    1
   127   130   131   ar
   128    58    56    1
   129   131   132    1
   130    45    48    1
   131    45    44    1
