@<TRIPOS>MOLECULE
tmp/1d5xA00.pdb
 144 139 0 0 0
SMALL
GASTEIGER

@<TRIPOS>ATOM
      1  N         49.4080   59.1690   29.0200 N.3     5  ILE5       -0.1245
      2  CA        48.0320   58.8030   28.7040 C.3     5  ILE5        0.1561
      3  C         48.0390   58.2620   27.2780 C.2     5  ILE5        0.2260
      4  O         48.5450   58.9120   26.3600 O.2     5  ILE5       -0.2867
      5  CB        47.0740   60.0050   28.7400 C.3     5  ILE5        0.0252
      6  CG1       47.1270   60.7080   30.1420 C.3     5  ILE5        0.0019
      7  CG2       45.6710   59.5460   28.3710 C.3     5  ILE5        0.0019
      8  CD1       46.2370   61.9050   30.2140 C.3     5  ILE5        0.0001
      9  N         45.7190   56.3190   24.1480 N.3     7  GLN7       -0.1245
     10  CA        44.4430   55.9070   23.5720 C.3     7  GLN7        0.1566
     11  C         44.7900   54.6520   22.7870 C.2     7  GLN7        0.2260
     12  O         45.4870   54.7320   21.7530 O.2     7  GLN7       -0.2867
     13  CB        43.8380   57.0260   22.7140 C.3     7  GLN7        0.0367
     14  CG        42.7140   56.5700   21.7890 C.3     7  GLN7        0.0905
     15  CD        42.2290   57.7040   20.8680 C.2     7  GLN7        0.2608
     16  OE1       42.2520   58.8610   21.2480 O.2     7  GLN7       -0.2717
     17  NE2       41.7600   57.3590   19.6850 N.am    7  GLN7       -0.0878
     18  N         43.8860   50.9360   20.9400 N.3     9  GLU9       -0.1245
     19  CA        42.8080   50.2770   20.1970 C.3     9  GLU9        0.1567
     20  C         43.3570   49.1480   19.3330 C.2     9  GLU9        0.2260
     21  O         44.5640   49.0310   19.1660 O.2     9  GLU9       -0.2867
     22  CB        42.1120   51.2810   19.3280 C.3     9  GLU9        0.0388
     23  CG        42.8980   51.8250   18.1610 C.3     9  GLU9        0.1160
     24  CD        42.3290   53.2600   17.9100 C.2     9  GLU9        0.3649
     25  OE1       41.1280   53.3880   17.8790 O.co2   9  GLU9       -0.2457
     26  OE2       42.9870   54.2780   17.8040 O.co2   9  GLU9       -0.2457
     27  N         38.7410   49.6350   22.2650 N.3    20  PHE20      -0.1241
     28  CA        39.0440   51.0540   22.3050 C.3    20  PHE20       0.1605
     29  C         39.0740   51.3890   23.7830 C.2    20  PHE20       0.2264
     30  O         38.0940   51.1820   24.4840 O.2    20  PHE20      -0.2867
     31  CB        37.9400   51.8470   21.6520 C.3    20  PHE20       0.0534
     32  CG        38.2780   53.2640   21.4600 C.ar   20  PHE20      -0.0203
     33  CD1       38.7120   53.7260   20.2090 C.ar   20  PHE20      -0.0042
     34  CD2       38.2000   54.1520   22.5230 C.ar   20  PHE20      -0.0042
     35  CE1       39.0660   55.0490   20.0080 C.ar   20  PHE20      -0.0003
     36  CE2       38.5550   55.4860   22.3360 C.ar   20  PHE20      -0.0003
     37  CZ        38.9980   55.9410   21.0480 C.ar   20  PHE20      -0.0000
     38  N         41.1610   53.9560   27.1050 N.3    22  PHE22      -0.1241
     39  CA        42.1400   54.9720   27.4850 C.3    22  PHE22       0.1605
     40  C         42.9290   54.4380   28.6540 C.2    22  PHE22       0.2264
     41  O         42.4040   53.7670   29.5560 O.2    22  PHE22      -0.2867
     42  CB        41.5100   56.2750   27.9070 C.3    22  PHE22       0.0534
     43  CG        41.5180   57.3430   26.8560 C.ar   22  PHE22      -0.0203
     44  CD1       40.8700   57.1520   25.6230 C.ar   22  PHE22      -0.0042
     45  CD2       42.1330   58.5600   27.1340 C.ar   22  PHE22      -0.0042
     46  CE1       40.8410   58.1740   24.6800 C.ar   22  PHE22      -0.0003
     47  CE2       42.1140   59.5830   26.2090 C.ar   22  PHE22      -0.0003
     48  CZ        41.4570   59.3800   24.9690 C.ar   22  PHE22      -0.0000
     49  N         41.4820   53.7640   32.2480 N.3    29  ILE29      -0.1231
     50  CA        40.5650   54.8000   32.7200 C.3    29  ILE29       0.1692
     51  C         39.1670   54.2940   32.3090 C.2    29  ILE29       0.2592
     52  O         38.2250   54.3550   33.0820 O.2    29  ILE29      -0.2718
     53  CB        40.7740   56.1550   32.0340 C.3    29  ILE29       0.0266
     54  CG1       42.2040   56.6450   32.2550 C.3    29  ILE29       0.0019
     55  CG2       39.7710   57.1990   32.6020 C.3    29  ILE29       0.0020
     56  CD1       42.5540   57.7900   31.3570 C.3    29  ILE29       0.0001
     57  N         39.0470   53.7690   31.0900 N.am   30  PHE30      -0.1976
     58  CA        37.7750   53.2520   30.6170 C.3    30  PHE30       0.1639
     59  C         37.9850   52.6610   29.2490 C.2    30  PHE30       0.2290
     60  O         39.0300   52.8630   28.6240 O.2    30  PHE30      -0.2864
     61  CB        36.7650   54.3630   30.4870 C.3    30  PHE30       0.0560
     62  CG        37.0160   55.2370   29.3060 C.ar   30  PHE30      -0.0200
     63  CD1       36.5380   54.8810   28.0460 C.ar   30  PHE30      -0.0042
     64  CD2       37.7990   56.3810   29.4230 C.ar   30  PHE30      -0.0042
     65  CE1       36.8400   55.6410   26.9320 C.ar   30  PHE30      -0.0003
     66  CE2       38.1140   57.1630   28.2980 C.ar   30  PHE30      -0.0003
     67  CZ        37.6310   56.7790   27.0680 C.ar   30  PHE30      -0.0000
     68  N         33.4400   53.0150   32.5450 N.3    41  TRP41      -0.1241
     69  CA        34.5520   53.5300   33.3640 C.3    41  TRP41       0.1605
     70  C         35.1330   52.4240   34.2180 C.2    41  TRP41       0.2264
     71  O         34.3850   51.6000   34.7340 O.2    41  TRP41      -0.2867
     72  CB        34.0490   54.6580   34.2550 C.3    41  TRP41       0.0550
     73  CG        33.4540   55.7590   33.4900 C.ar   41  TRP41       0.0003
     74  CD1       32.1470   55.9200   33.1680 C.ar   41  TRP41       0.0946
     75  CD2       34.1620   56.8320   32.8520 C.ar   41  TRP41       0.0152
     76  NE1       31.9870   57.0490   32.3510 N.ar   41  TRP41      -0.2442
     77  CE2       33.2180   57.6160   32.1560 C.ar   41  TRP41       0.0810
     78  CE3       35.5130   57.1960   32.8100 C.ar   41  TRP41       0.0012
     79  CZ2       33.5820   58.7320   31.4230 C.ar   41  TRP41       0.0191
     80  CZ3       35.8740   58.3260   32.0810 C.ar   41  TRP41       0.0001
     81  CH2       34.9110   59.0820   31.3980 C.ar   41  TRP41       0.0015
     82  N         34.1230   63.1480   34.6280 N.3    50  ALA50      -0.1231
     83  CA        34.3530   63.2500   33.1860 C.3    50  ALA50       0.1694
     84  C         33.3580   62.4660   32.3310 C.2    50  ALA50       0.2593
     85  O         32.4910   61.7190   32.8300 O.2    50  ALA50      -0.2718
     86  CB        35.7740   62.7840   32.8690 C.3    50  ALA50       0.0304
     87  N         33.4880   62.6530   31.0280 N.am   51  SER51      -0.1938
     88  CA        32.6520   61.9380   30.0620 C.3    51  SER51       0.2055
     89  C         33.4470   61.7560   28.7550 C.2    51  SER51       0.2643
     90  O         34.5270   62.3140   28.5910 O.2    51  SER51      -0.2714
     91  CB        31.3800   62.7440   29.7940 C.3    51  SER51       0.2130
     92  OG        31.7200   64.0480   29.3400 O.3    51  SER51      -0.2179
     93  N         32.8860   60.9780   27.8370 N.am   52  PHE52      -0.1959
     94  CA        33.4990   60.7320   26.5580 C.3    52  PHE52       0.1771
     95  C         32.4180   60.3340   25.5570 C.2    52  PHE52       0.2619
     96  O         31.5340   59.5800   25.8730 O.2    52  PHE52      -0.2715
     97  CB        34.5260   59.6160   26.7030 C.3    52  PHE52       0.0574
     98  CG        35.2100   59.2540   25.4230 C.ar   52  PHE52      -0.0200
     99  CD1       36.2510   60.0460   24.9380 C.ar   52  PHE52      -0.0042
    100  CD2       34.7950   58.1630   24.6680 C.ar   52  PHE52      -0.0042
    101  CE1       36.8670   59.7590   23.7100 C.ar   52  PHE52      -0.0003
    102  CE2       35.3940   57.8620   23.4540 C.ar   52  PHE52      -0.0003
    103  CZ        36.4220   58.6460   22.9660 C.ar   52  PHE52      -0.0000
    104  N         32.4410   60.9140   24.3670 N.am   53  GLU53      -0.1977
    105  CA        31.4470   60.5670   23.3680 C.3    53  GLU53       0.1602
    106  C         31.7780   59.1500   22.8580 C.2    53  GLU53       0.2287
    107  O         32.4700   58.9780   21.8640 O.2    53  GLU53      -0.2864
    108  CB        31.4930   61.5840   22.2300 C.3    53  GLU53       0.0415
    109  CG        30.1570   62.1780   21.9580 C.3    53  GLU53       0.1163
    110  CD        29.1090   61.1170   21.6320 C.2    53  GLU53       0.3649
    111  OE1       28.0800   61.0300   22.3690 O.co2  53  GLU53      -0.2457
    112  OE2       29.2620   60.4140   20.6080 O.co2  53  GLU53      -0.2457
    113  N         32.0280   58.0820   18.8740 N.3    56  GLY56      -0.1210
    114  CA        33.1030   58.5210   17.9920 C.3    56  GLY56       0.1956
    115  C         34.1280   57.4200   17.8400 C.2    56  GLY56       0.2611
    116  O         34.7390   57.2850   16.7540 O.2    56  GLY56      -0.2717
    117  N         34.3050   56.6180   18.8940 N.am   57  ALA57      -0.1979
    118  CA        35.2800   55.5450   18.8190 C.3    57  ALA57       0.1597
    119  C         35.0540   54.5360   17.6930 C.2    57  ALA57       0.2287
    120  O         35.9690   53.8570   17.2530 O.2    57  ALA57      -0.2864
    121  CB        35.3590   54.8180   20.1450 C.3    57  ALA57       0.0319
    122  N         37.2220   55.1910   14.6140 N.3    60  ASN60      -0.1240
    123  CA        38.5770   54.7020   14.7050 C.3    60  ASN60       0.1653
    124  C         38.6720   53.2210   14.4050 C.2    60  ASN60       0.2266
    125  O         39.5270   52.7800   13.6510 O.2    60  ASN60      -0.2867
    126  CB        39.1520   54.9710   16.0920 C.3    60  ASN60       0.1155
    127  CG        39.1940   56.4350   16.4280 C.2    60  ASN60       0.2627
    128  OD1       38.1640   57.0690   16.5670 O.2    60  ASN60      -0.2716
    129  ND2       40.3890   56.9870   16.5150 N.am   60  ASN60      -0.0877
    130  N         38.3030   52.4370   10.7680 N.3    63  VAL63      -0.1231
    131  CA        39.4770   52.6620    9.9610 C.3    63  VAL63       0.1692
    132  C         40.5270   51.5990   10.3190 C.2    63  VAL63       0.2592
    133  O         41.2500   51.1320    9.4280 O.2    63  VAL63      -0.2718
    134  CB        40.0590   54.1150   10.1800 C.3    63  VAL63       0.0266
    135  CG1       41.4760   54.0680   10.7000 C.3    63  VAL63       0.0020
    136  CG2       40.1940   54.8270    8.8760 C.3    63  VAL63       0.0020
    137  N         40.6040   51.1980   11.5960 N.am   64  ASP64      -0.1974
    138  CA        41.6170   50.2080   11.9720 C.3    64  ASP64       0.1709
    139  C         41.3590   48.9070   11.2280 C.2    64  ASP64       0.2293
    140  O         42.3060   48.1250   10.9710 O.2    64  ASP64      -0.2864
    141  CB        41.6570   49.9220   13.4800 C.3    64  ASP64       0.1436
    142  CG        41.9760   51.1590   14.2960 C.2    64  ASP64       0.3671
    143  OD1       42.9680   51.8110   13.9440 O.co2  64  ASP64      -0.2456
    144  OD2       41.2460   51.5040   15.2520 O.co2  64  ASP64      -0.2456
@<TRIPOS>BOND
     1   136   134    1
     2   133   132    2
     3   131   134    1
     4   131   132    1
     5   131   130    1
     6   134   135    1
     7   132   137   am
     8   140   139    2
     9   139   138    1
    10   137   138    1
    11   138   141    1
    12   141   142    1
    13   125   124    2
    14   143   142   ar
    15   142   144   ar
    16   124   123    1
    17   122   123    1
    18   123   126    1
    19   126   127    1
    20   127   129   am
    21   127   128    2
    22   116   115    2
    23   120   119    2
    24   119   118    1
    25    26    24   ar
    26   115   114    1
    27   115   117   am
    28    25    24   ar
    29    24    23    1
    30   114   113    1
    31    23    22    1
    32   118   117    1
    33   118   121    1
    34    21    20    2
    35    22    19    1
    36    20    19    1
    37    17    15   am
    38    35    33   ar
    39    35    37   ar
    40    19    18    1
    41    33    32   ar
    42   112   110   ar
    43    15    16    2
    44    15    14    1
    45    37    36   ar
    46    32    31    1
    47    32    34   ar
    48   110   109    1
    49   110   111   ar
    50    31    28    1
    51    12    11    2
    52    14    13    1
    53   107   106    2
    54   109   108    1
    55   108   105    1
    56    27    28    1
    57    28    29    1
    58    36    34   ar
    59    13    10    1
    60    11    10    1
    61   106   105    1
    62   103   102   ar
    63   103   101   ar
    64   105   104    1
    65   102   100   ar
    66    10     9    1
    67   101    99   ar
    68    29    30    2
    69   104    95   am
    70   100    98   ar
    71    46    48   ar
    72    46    44   ar
    73    99    98   ar
    74    48    47   ar
    75    98    97    1
    76    95    96    2
    77    95    94    1
    78    44    43   ar
    79    47    45   ar
    80     4     3    2
    81    94    97    1
    82    94    93    1
    83    43    45   ar
    84    43    42    1
    85    65    67   ar
    86    65    63   ar
    87    67    66   ar
    88    38    39    1
    89     3     2    1
    90    39    42    1
    91    39    40    1
    92    93    89   am
    93    63    62   ar
    94    66    64   ar
    95     7     5    1
    96    90    89    2
    97    60    59    2
    98    40    41    2
    99     2     5    1
   100     2     1    1
   101     5     6    1
   102    89    88    1
   103    59    58    1
   104    62    64   ar
   105    62    61    1
   106    92    91    1
   107    91    88    1
   108    88    87    1
   109     6     8    1
   110    61    58    1
   111    58    57    1
   112    87    84   am
   113    57    51   am
   114    56    54    1
   115    81    79   ar
   116    81    80   ar
   117    79    77   ar
   118    53    54    1
   119    53    55    1
   120    53    50    1
   121    80    78   ar
   122    77    76   ar
   123    77    75   ar
   124    49    50    1
   125    51    50    1
   126    51    52    2
   127    84    85    2
   128    84    83    1
   129    76    74   ar
   130    68    69    1
   131    78    75   ar
   132    75    73   ar
   133    86    83    1
   134    74    73   ar
   135    83    82    1
   136    69    70    1
   137    69    72    1
   138    73    72    1
   139    70    71    2
