@<TRIPOS>MOLECULE
tmp/1d5xB00.pdb
 151 147 0 0 0
SMALL
GASTEIGER

@<TRIPOS>ATOM
      1  N         46.7510   50.2470   17.2940 N.3    11  VAL11      -0.1245
      2  CA        46.9920   51.6640   17.1700 C.3    11  VAL11       0.1561
      3  C         47.1220   52.2950   18.5400 C.2    11  VAL11       0.2260
      4  O         46.3350   51.9880   19.4760 O.2    11  VAL11      -0.2867
      5  CB        45.8340   52.3650   16.4740 C.3    11  VAL11       0.0252
      6  CG1       46.2240   53.8060   16.1800 C.3    11  VAL11       0.0019
      7  CG2       45.4700   51.6050   15.2090 C.3    11  VAL11       0.0019
      8  N         47.8780   56.1860   20.4240 N.3    13  HIS13      -0.1241
      9  CA        48.1860   57.6010   20.4230 C.3    13  HIS13       0.1621
     10  C         48.6160   57.8760   21.8630 C.2    13  HIS13       0.2264
     11  O         47.8230   57.7730   22.7990 O.2    13  HIS13      -0.2867
     12  CB        46.9480   58.4020   20.0430 C.3    13  HIS13       0.0745
     13  CG        46.1940   57.8420   18.8820 C.ar   13  HIS13       0.0817
     14  ND1       45.3680   56.7380   18.9670 N.ar   13  HIS13      -0.2268
     15  CD2       46.1180   58.2750   17.5970 C.ar   13  HIS13       0.1154
     16  CE1       44.7950   56.5290   17.7900 C.ar   13  HIS13       0.1986
     17  NE2       45.2360   57.4480   16.9480 N.ar   13  HIS13      -0.2212
     18  N         53.5590   64.0780   21.7840 N.3    26  PHE26      -0.1241
     19  CA        52.6030   63.2050   21.1330 C.3    26  PHE26       0.1605
     20  C         53.2250   62.1950   20.1690 C.2    26  PHE26       0.2264
     21  O         54.0510   62.5680   19.3080 O.2    26  PHE26      -0.2867
     22  CB        51.6150   64.0710   20.3560 C.3    26  PHE26       0.0534
     23  CG        50.6150   63.2760   19.5600 C.ar   26  PHE26      -0.0203
     24  CD1       49.6700   62.4550   20.1960 C.ar   26  PHE26      -0.0042
     25  CD2       50.6000   63.3600   18.1750 C.ar   26  PHE26      -0.0042
     26  CE1       48.7310   61.7340   19.4380 C.ar   26  PHE26      -0.0003
     27  CE2       49.6810   62.6390   17.4310 C.ar   26  PHE26      -0.0003
     28  CZ        48.7450   61.8280   18.0520 C.ar   26  PHE26      -0.0000
     29  N         51.2620   53.0520   14.8610 N.3    30  TYR30      -0.1241
     30  CA        50.4620   51.9940   14.2410 C.3    30  TYR30       0.1605
     31  C         51.2690   50.7250   14.2360 C.2    30  TYR30       0.2264
     32  O         52.4590   50.7340   13.9130 O.2    30  TYR30      -0.2867
     33  CB        50.1170   52.3480   12.8070 C.3    30  TYR30       0.0534
     34  CG        49.2340   53.5670   12.6920 C.ar   30  TYR30      -0.0201
     35  CD1       49.6600   54.8100   13.1830 C.ar   30  TYR30      -0.0009
     36  CD2       47.9740   53.4730   12.1210 C.ar   30  TYR30      -0.0009
     37  CE1       48.8320   55.9140   13.1210 C.ar   30  TYR30       0.0417
     38  CE2       47.1370   54.6000   12.0430 C.ar   30  TYR30       0.0417
     39  CZ        47.5800   55.8120   12.5530 C.ar   30  TYR30       0.1957
     40  OH        46.7870   56.9300   12.4960 O.3    30  TYR30      -0.2866
     41  N         50.8180   59.8990    3.8950 N.3    61  TRP61      -0.1241
     42  CA        50.2470   60.6970    4.9660 C.3    61  TRP61       0.1605
     43  C         50.9960   62.0300    5.0880 C.2    61  TRP61       0.2264
     44  O         50.3720   63.0730    5.2520 O.2    61  TRP61      -0.2867
     45  CB        50.3170   59.9330    6.3010 C.3    61  TRP61       0.0550
     46  CG        49.4290   58.7080    6.3930 C.ar   61  TRP61       0.0003
     47  CD1       48.3590   58.3760    5.5950 C.ar   61  TRP61       0.0946
     48  CD2       49.5070   57.6860    7.3920 C.ar   61  TRP61       0.0152
     49  NE1       47.7740   57.2100    6.0420 N.ar   61  TRP61      -0.2442
     50  CE2       48.4670   56.7720    7.1430 C.ar   61  TRP61       0.0810
     51  CE3       50.3520   57.4640    8.4740 C.ar   61  TRP61       0.0012
     52  CZ2       48.2560   55.6470    7.9420 C.ar   61  TRP61       0.0191
     53  CZ3       50.1480   56.3540    9.2640 C.ar   61  TRP61       0.0001
     54  CH2       49.1080   55.4520    8.9950 C.ar   61  TRP61       0.0015
     55  N         45.9050   66.9210    7.3820 N.3    67  LEU67      -0.1245
     56  CA        46.1720   65.8880    8.3750 C.3    67  LEU67       0.1561
     57  C         47.3970   66.1900    9.2410 C.2    67  LEU67       0.2260
     58  O         47.3590   65.9750   10.4530 O.2    67  LEU67      -0.2867
     59  CB        46.4070   64.5450    7.6940 C.3    67  LEU67       0.0270
     60  CG        46.9080   63.4660    8.6670 C.3    67  LEU67       0.0019
     61  CD1       45.8230   63.2130    9.7210 C.3    67  LEU67       0.0001
     62  CD2       47.1880   62.2010    7.8990 C.3    67  LEU67       0.0001
     63  N         46.7760   68.8870   11.8450 N.3    70  GLN70      -0.1231
     64  CA        46.0610   68.2590   12.9420 C.3    70  GLN70       0.1698
     65  C         46.8730   67.4200   13.9030 C.2    70  GLN70       0.2592
     66  O         46.6270   67.4700   15.1040 O.2    70  GLN70      -0.2718
     67  CB        44.8790   67.4760   12.3790 C.3    70  GLN70       0.0381
     68  CG        43.8940   68.3780   11.5760 C.3    70  GLN70       0.0905
     69  CD        42.6360   67.6420   11.1670 C.2    70  GLN70       0.2608
     70  OE1       42.7000   66.5300   10.6240 O.2    70  GLN70      -0.2717
     71  NE2       41.4870   68.2410   11.4390 N.am   70  GLN70      -0.0878
     72  N         47.8590   66.6940   13.3990 N.am   71  LYS71      -0.1980
     73  CA        48.6880   65.8840   14.2630 C.3    71  LYS71       0.1596
     74  C         49.6470   66.7900   15.0330 C.2    71  LYS71       0.2287
     75  O         50.0240   66.5110   16.1670 O.2    71  LYS71      -0.2864
     76  CB        49.4560   64.8570   13.4360 C.3    71  LYS71       0.0298
     77  CG        48.5860   63.9010   12.6470 C.3    71  LYS71       0.0038
     78  CD        47.9970   62.8440   13.5630 C.3    71  LYS71       0.0206
     79  CE        47.1090   61.8630   12.7790 C.3    71  LYS71       0.1093
     80  NZ        46.3360   60.8890   13.6460 N.3    71  LYS71      -0.1314
     81  N         47.8350   68.3390   17.9630 N.3    74  ALA74      -0.1245
     82  CA        47.5180   67.3330   18.9590 C.3    74  ALA74       0.1562
     83  C         48.0810   67.5650   20.3650 C.2    74  ALA74       0.2260
     84  O         47.3890   67.3280   21.3380 O.2    74  ALA74      -0.2867
     85  CB        47.9600   65.9630   18.4580 C.3    74  ALA74       0.0290
     86  N         45.5110   70.4530   21.4750 N.3    77  THR77      -0.1203
     87  CA        44.1370   70.0230   21.2730 C.3    77  THR77       0.1994
     88  C         43.7820   68.6740   21.8960 C.2    77  THR77       0.2617
     89  O         42.6650   68.4580   22.3360 O.2    77  THR77      -0.2717
     90  CB        43.8400   69.9560   19.7730 C.3    77  THR77       0.1784
     91  OG1       43.9050   71.2730   19.2290 O.3    77  THR77      -0.2211
     92  CG2       42.4560   69.3770   19.5240 C.3    77  THR77       0.0376
     93  N         44.7470   67.7760   21.9540 N.am   78  TYR78      -0.1975
     94  CA        44.5160   66.4470   22.4730 C.3    78  TYR78       0.1639
     95  C         45.1830   66.1780   23.8200 C.2    78  TYR78       0.2290
     96  O         44.5260   66.0110   24.8360 O.2    78  TYR78      -0.2864
     97  CB        44.9720   65.4290   21.4200 C.3    78  TYR78       0.0560
     98  CG        44.8410   63.9620   21.8000 C.ar   78  TYR78      -0.0198
     99  CD1       43.5870   63.4030   22.1120 C.ar   78  TYR78      -0.0009
    100  CD2       45.9440   63.1120   21.7620 C.ar   78  TYR78      -0.0009
    101  CE1       43.4420   62.0500   22.3600 C.ar   78  TYR78       0.0417
    102  CE2       45.8000   61.7450   22.0030 C.ar   78  TYR78       0.0417
    103  CZ        44.5420   61.2180   22.3010 C.ar   78  TYR78       0.1957
    104  OH        44.4130   59.8610   22.5310 O.3    78  TYR78      -0.2866
    105  N         44.6010   69.0780   26.4690 N.3    81  HIS81      -0.1226
    106  CA        43.1940   69.1440   26.7590 C.3    81  HIS81       0.1752
    107  C         42.7990   68.0100   27.7240 C.2    81  HIS81       0.2596
    108  O         42.2420   68.2410   28.7980 O.2    81  HIS81      -0.2718
    109  CB        42.3490   68.9890   25.4900 C.3    81  HIS81       0.0759
    110  CG        40.8790   68.9030   25.7660 C.ar   81  HIS81       0.0818
    111  ND1       40.1060   70.0130   25.9850 N.ar   81  HIS81      -0.2268
    112  CD2       40.0670   67.8390   25.9570 C.ar   81  HIS81       0.1154
    113  CE1       38.8820   69.6460   26.3010 C.ar   81  HIS81       0.1986
    114  NE2       38.8280   68.3300   26.2910 N.ar   81  HIS81      -0.2212
    115  N         43.1360   66.7770   27.3580 N.am   82  ASN82      -0.1974
    116  CA        42.7730   65.6380   28.1580 C.3    82  ASN82       0.1688
    117  C         43.4320   65.6080   29.5210 C.2    82  ASN82       0.2292
    118  O         42.8380   65.1330   30.4710 O.2    82  ASN82      -0.2864
    119  CB        43.0510   64.3380   27.3830 C.3    82  ASN82       0.1181
    120  CG        41.9630   64.0490   26.3390 C.2    82  ASN82       0.2629
    121  OD1       40.8920   64.6540   26.4080 O.2    82  ASN82      -0.2716
    122  ND2       42.2040   63.1020   25.4120 N.am   82  ASN82      -0.0877
    123  N         41.5110   67.4930   31.9690 N.3    85  VAL85      -0.1231
    124  CA        40.2150   66.9170   32.2530 C.3    85  VAL85       0.1692
    125  C         40.2950   65.7390   33.2060 C.2    85  VAL85       0.2592
    126  O         39.3750   65.5090   34.0010 O.2    85  VAL85      -0.2718
    127  CB        39.5200   66.4370   30.9490 C.3    85  VAL85       0.0266
    128  CG1       38.1970   65.7150   31.2930 C.3    85  VAL85       0.0020
    129  CG2       39.2090   67.6270   30.0800 C.3    85  VAL85       0.0020
    130  N         41.3840   64.9880   33.1380 N.am   86  GLY86      -0.1957
    131  CA        41.5080   63.8170   33.9910 C.3    86  GLY86       0.1869
    132  C         42.4520   63.9720   35.1610 C.2    86  GLY86       0.2309
    133  O         42.4780   63.1410   36.0490 O.2    86  GLY86      -0.2863
    134  N         41.5420   63.4600   38.8600 N.3    89  PHE89      -0.1227
    135  CA        41.4120   62.1580   39.5150 C.3    89  PHE89       0.1736
    136  C         42.3160   61.0190   39.0120 C.2    89  PHE89       0.2596
    137  O         42.0270   59.8420   39.2120 O.2    89  PHE89      -0.2718
    138  CB        39.9730   61.7060   39.3900 C.3    89  PHE89       0.0547
    139  CG        39.5160   61.6080   37.9740 C.ar   89  PHE89      -0.0202
    140  CD1       39.7230   60.4460   37.2420 C.ar   89  PHE89      -0.0042
    141  CD2       38.9250   62.7020   37.3550 C.ar   89  PHE89      -0.0042
    142  CE1       39.3370   60.3660   35.8990 C.ar   89  PHE89      -0.0003
    143  CE2       38.5320   62.6450   36.0170 C.ar   89  PHE89      -0.0003
    144  CZ        38.7370   61.4600   35.2820 C.ar   89  PHE89      -0.0000
    145  N         43.4080   61.3770   38.3550 N.am   90  THR90      -0.1953
    146  CA        44.3700   60.3980   37.8720 C.3    90  THR90       0.1897
    147  C         45.6940   60.8170   38.5050 C.2    90  THR90       0.2313
    148  O         46.2120   60.1720   39.4240 O.2    90  THR90      -0.2863
    149  CB        44.5200   60.4500   36.3100 C.3    90  THR90       0.1794
    150  OG1       44.7970   61.7890   35.9300 O.3    90  THR90      -0.2208
    151  CG2       43.2570   60.0030   35.6230 C.3    90  THR90       0.0378
@<TRIPOS>BOND
     1    41    42    1
     2    42    43    1
     3    42    45    1
     4    43    44    2
     5    47    49   ar
     6    47    46   ar
     7    49    50   ar
     8    45    46    1
     9    46    48   ar
    10    50    48   ar
    11    50    52   ar
    12    55    56    1
    13    48    51   ar
    14    59    56    1
    15    59    60    1
    16    62    60    1
    17    52    54   ar
    18    56    57    1
    19    51    53   ar
    20    60    61    1
    21    54    53   ar
    22    57    58    2
    23    70    69    2
    24    69    71   am
    25    69    68    1
    26    68    67    1
    27    63    64    1
    28    38    36   ar
    29    38    39   ar
    30    36    34   ar
    31    67    64    1
    32    40    39    1
    33    39    37   ar
    34    77    76    1
    35    77    78    1
    36    34    33    1
    37    34    35   ar
    38    79    78    1
    39    79    80    1
    40    33    30    1
    41    64    65    1
    42    37    35   ar
    43    72    65   am
    44    72    73    1
    45    76    73    1
    46    65    66    2
    47    32    31    2
    48    31    30    1
    49    30    29    1
    50    73    74    1
    51    74    75    2
    52     7     5    1
    53     6     5    1
    54     5     2    1
    55    17    15   ar
    56    17    16   ar
    57     2     1    1
    58     2     3    1
    59    27    28   ar
    60    27    25   ar
    61    15    13   ar
    62    16    14   ar
    63    81    82    1
    64    28    26   ar
    65    25    23   ar
    66    85    82    1
    67     3     4    2
    68    13    14   ar
    69    13    12    1
    70    82    83    1
    71    91    90    1
    72    21    20    2
    73    26    24   ar
    74    92    90    1
    75    23    24   ar
    76    23    22    1
    77    90    87    1
    78    12     9    1
    79    20    19    1
    80    22    19    1
    81    83    84    2
    82     9     8    1
    83     9    10    1
    84    19    18    1
    85    87    86    1
    86    87    88    1
    87    97    98    1
    88    97    94    1
    89   100    98   ar
    90   100   102   ar
    91    98    99   ar
    92    10    11    2
    93    88    93   am
    94    88    89    2
    95    93    94    1
    96   102   103   ar
    97    99   101   ar
    98   103   101   ar
    99   103   104    1
   100    94    95    1
   101    95    96    2
   102   122   120   am
   103   109   110    1
   104   109   106    1
   105   110   112   ar
   106   110   111   ar
   107   112   114   ar
   108   111   113   ar
   109   114   113   ar
   110   120   121    2
   111   120   119    1
   112   105   106    1
   113   106   107    1
   114   115   107   am
   115   115   116    1
   116   119   116    1
   117   107   108    2
   118   116   117    1
   119   117   118    2
   120   129   127    1
   121   127   128    1
   122   127   124    1
   123   123   124    1
   124   124   125    1
   125   130   125   am
   126   130   131    1
   127   125   126    2
   128   131   132    1
   129   132   133    2
   130   144   142   ar
   131   144   143   ar
   132   151   149    1
   133   142   140   ar
   134   150   149    1
   135   143   141   ar
   136   149   146    1
   137   140   139   ar
   138   141   139   ar
   139   146   145    1
   140   146   147    1
   141   139   138    1
   142   145   136   am
   143   147   148    2
   144   134   135    1
   145   136   137    2
   146   136   135    1
   147   138   135    1
