@<TRIPOS>MOLECULE
tmp/1d5zB00.pdb
 171 166 0 0 0
SMALL
GASTEIGER

@<TRIPOS>ATOM
      1  N         17.7160   30.8550   16.3180 N.3    11  VAL11      -0.1245
      2  CA        17.1120   30.6220   17.6120 C.3    11  VAL11       0.1561
      3  C         16.7620   31.9930   18.1390 C.2    11  VAL11       0.2260
      4  O         17.5720   32.9240   18.0780 O.2    11  VAL11      -0.2867
      5  CB        18.0620   29.9490   18.6140 C.3    11  VAL11       0.0252
      6  CG1       17.3280   29.7240   19.9410 C.3    11  VAL11       0.0019
      7  CG2       18.5670   28.6350   18.0550 C.3    11  VAL11       0.0019
      8  N         15.0450   33.7620   21.5680 N.3    13  HIS13      -0.1241
      9  CA        14.5280   33.6400   22.9210 C.3    13  HIS13       0.1621
     10  C         13.8480   34.9820   23.0950 C.2    13  HIS13       0.2264
     11  O         14.5190   35.9950   23.2600 O.2    13  HIS13      -0.2867
     12  CB        15.6860   33.4930   23.9070 C.3    13  HIS13       0.0745
     13  CG        16.6270   32.3770   23.5640 C.ar   13  HIS13       0.0817
     14  ND1       16.3820   31.0670   23.9110 N.ar   13  HIS13      -0.2268
     15  CD2       17.8010   32.3760   22.8980 C.ar   13  HIS13       0.1154
     16  CE1       17.3710   30.3070   23.4780 C.ar   13  HIS13       0.1986
     17  NE2       18.2480   31.0730   22.8590 N.ar   13  HIS13      -0.2212
     18  N          7.2820   34.2640   27.5920 N.3    26  PHE26      -0.1241
     19  CA         8.5800   33.8250   27.1120 C.3    26  PHE26       0.1605
     20  C          8.4050   32.7960   26.0150 C.2    26  PHE26       0.2264
     21  O          7.6570   31.8310   26.1760 O.2    26  PHE26      -0.2867
     22  CB         9.3840   33.2070   28.2600 C.3    26  PHE26       0.0534
     23  CG        10.6140   32.4760   27.8180 C.ar   26  PHE26      -0.0203
     24  CD1       11.6930   33.1670   27.2840 C.ar   26  PHE26      -0.0042
     25  CD2       10.7040   31.0920   27.9570 C.ar   26  PHE26      -0.0042
     26  CE1       12.8420   32.4990   26.8970 C.ar   26  PHE26      -0.0003
     27  CE2       11.8540   30.4060   27.5720 C.ar   26  PHE26      -0.0003
     28  CZ        12.9260   31.1110   27.0420 C.ar   26  PHE26      -0.0000
     29  N         10.6800   30.3550   23.3810 N.3    28  ASP28      -0.1239
     30  CA        11.9720   29.7810   23.0390 C.3    28  ASP28       0.1674
     31  C         11.7050   29.2030   21.6570 C.2    28  ASP28       0.2266
     32  O         11.0520   28.1720   21.5370 O.2    28  ASP28      -0.2867
     33  CB        12.3370   28.6730   24.0270 C.3    28  ASP28       0.1410
     34  CG        13.8310   28.4260   24.0910 C.2    28  ASP28       0.3668
     35  OD1       14.5790   29.4200   24.2110 O.co2  28  ASP28      -0.2456
     36  OD2       14.2630   27.2550   24.0320 O.co2  28  ASP28      -0.2456
     37  N         12.9000   27.8990   17.6900 N.3    30  TYR30      -0.1241
     38  CA        13.9500   27.3350   16.8550 C.3    30  TYR30       0.1605
     39  C         13.5310   27.3010   15.4000 C.2    30  TYR30       0.2264
     40  O         12.4500   26.8170   15.0550 O.2    30  TYR30      -0.2867
     41  CB        14.3150   25.9430   17.3500 C.3    30  TYR30       0.0534
     42  CG        14.8530   25.9820   18.7600 C.ar   30  TYR30      -0.0201
     43  CD1       14.0110   26.2320   19.8490 C.ar   30  TYR30      -0.0009
     44  CD2       16.2160   25.8620   18.9980 C.ar   30  TYR30      -0.0009
     45  CE1       14.5240   26.3690   21.1430 C.ar   30  TYR30       0.0417
     46  CE2       16.7350   25.9970   20.2770 C.ar   30  TYR30       0.0417
     47  CZ        15.8900   26.2530   21.3440 C.ar   30  TYR30       0.1957
     48  OH        16.4320   26.4160   22.5980 O.3    30  TYR30      -0.2866
     49  N          7.5770   22.3770   25.4080 N.3    47  TYR47      -0.1241
     50  CA         7.9580   22.5260   24.0180 C.3    47  TYR47       0.1605
     51  C          6.9210   21.8280   23.1570 C.2    47  TYR47       0.2264
     52  O          6.4500   20.7370   23.4910 O.2    47  TYR47      -0.2867
     53  CB         9.3360   21.9220   23.7620 C.3    47  TYR47       0.0534
     54  CG        10.4650   22.8170   24.1900 C.ar   47  TYR47      -0.0201
     55  CD1       10.9940   22.7370   25.4750 C.ar   47  TYR47      -0.0009
     56  CD2       10.9900   23.7660   23.3140 C.ar   47  TYR47      -0.0009
     57  CE1       12.0210   23.5790   25.8780 C.ar   47  TYR47       0.0417
     58  CE2       12.0130   24.6130   23.7040 C.ar   47  TYR47       0.0417
     59  CZ        12.5240   24.5140   24.9880 C.ar   47  TYR47       0.1957
     60  OH        13.5310   25.3560   25.3830 O.3    47  TYR47      -0.2866
     61  N         13.2110   17.2400   24.7680 N.3    61  TRP61      -0.1241
     62  CA        13.3240   18.3740   25.6760 C.3    61  TRP61       0.1605
     63  C         12.3100   18.3340   26.8080 C.2    61  TRP61       0.2264
     64  O         12.6330   18.6780   27.9380 O.2    61  TRP61      -0.2867
     65  CB        13.2120   19.6870   24.9000 C.3    61  TRP61       0.0550
     66  CG        14.3300   19.8720   23.9170 C.ar   61  TRP61       0.0003
     67  CD1       15.5320   19.2120   23.9030 C.ar   61  TRP61       0.0946
     68  CD2       14.3710   20.7970   22.8250 C.ar   61  TRP61       0.0152
     69  NE1       16.3140   19.6730   22.8710 N.ar   61  TRP61      -0.2442
     70  CE2       15.6270   20.6450   22.1950 C.ar   61  TRP61       0.0810
     71  CE3       13.4680   21.7410   22.3200 C.ar   61  TRP61       0.0012
     72  CZ2       16.0030   21.4060   21.0830 C.ar   61  TRP61       0.0191
     73  CZ3       13.8450   22.4980   21.2130 C.ar   61  TRP61       0.0001
     74  CH2       15.1030   22.3240   20.6080 C.ar   61  TRP61       0.0015
     75  N         15.2270   20.7510   32.6690 N.3    67  LEU67      -0.1245
     76  CA        15.1640   21.6180   31.5070 C.3    67  LEU67       0.1561
     77  C         13.8480   22.3890   31.4720 C.2    67  LEU67       0.2260
     78  O         13.8530   23.6110   31.3360 O.2    67  LEU67      -0.2867
     79  CB        15.3260   20.7900   30.2240 C.3    67  LEU67       0.0270
     80  CG        15.3890   21.5320   28.8840 C.3    67  LEU67       0.0019
     81  CD1       14.0080   22.0020   28.4710 C.3    67  LEU67       0.0001
     82  CD2       16.3450   22.7040   29.0030 C.3    67  LEU67       0.0001
     83  N         13.7630   24.9550   34.1140 N.3    70  GLN70      -0.1231
     84  CA        14.4710   26.1790   33.7710 C.3    70  GLN70       0.1698
     85  C         13.5980   27.0590   32.8700 C.2    70  GLN70       0.2592
     86  O         13.3900   28.2380   33.1510 O.2    70  GLN70      -0.2718
     87  CB        15.7780   25.8510   33.0400 C.3    70  GLN70       0.0381
     88  CG        16.8810   25.2860   33.9130 C.3    70  GLN70       0.0905
     89  CD        18.0590   24.7690   33.1000 C.2    70  GLN70       0.2608
     90  OE1       18.5180   25.4270   32.1610 O.2    70  GLN70      -0.2717
     91  NE2       18.5590   23.5890   33.4640 N.am   70  GLN70      -0.0878
     92  N         13.0890   26.4790   31.7860 N.am   71  LYS71      -0.1980
     93  CA        12.2540   27.2260   30.8440 C.3    71  LYS71       0.1596
     94  C         11.0120   27.8420   31.4920 C.2    71  LYS71       0.2287
     95  O         10.6230   28.9610   31.1650 O.2    71  LYS71      -0.2864
     96  CB        11.8320   26.3240   29.6760 C.3    71  LYS71       0.0298
     97  CG        12.9920   25.8600   28.8050 C.3    71  LYS71       0.0038
     98  CD        13.7050   27.0500   28.1570 C.3    71  LYS71       0.0206
     99  CE        15.0100   26.6200   27.4870 C.3    71  LYS71       0.1093
    100  NZ        16.0090   26.1130   28.4810 N.3    71  LYS71      -0.1314
    101  N         11.8120   30.9160   33.2470 N.3    74  ALA74      -0.1245
    102  CA        12.3790   31.9050   32.3340 C.3    74  ALA74       0.1562
    103  C         11.7470   33.2890   32.4060 C.2    74  ALA74       0.2260
    104  O         12.4580   34.2990   32.4140 O.2    74  ALA74      -0.2867
    105  CB        12.3210   31.3770   30.8990 C.3    74  ALA74       0.0290
    106  N         13.5730   34.5860   35.7360 N.3    77  THR77      -0.1203
    107  CA        15.0330   34.5930   35.7460 C.3    77  THR77       0.1994
    108  C         15.6560   35.1410   34.4830 C.2    77  THR77       0.2617
    109  O         16.8280   35.5410   34.4800 O.2    77  THR77      -0.2717
    110  CB        15.5880   33.1870   35.9320 C.3    77  THR77       0.1784
    111  OG1       15.2670   32.4030   34.7730 O.3    77  THR77      -0.2211
    112  CG2       14.9790   32.5370   37.1790 C.3    77  THR77       0.0376
    113  N         14.8840   35.1420   33.4040 N.am   78  TYR78      -0.1975
    114  CA        15.3930   35.6320   32.1350 C.3    78  TYR78       0.1639
    115  C         14.7570   36.9480   31.6990 C.2    78  TYR78       0.2290
    116  O         15.4130   37.9890   31.6420 O.2    78  TYR78      -0.2864
    117  CB        15.1860   34.5530   31.0550 C.3    78  TYR78       0.0560
    118  CG        15.6490   34.9340   29.6650 C.ar   78  TYR78      -0.0198
    119  CD1       16.9710   35.3150   29.4290 C.ar   78  TYR78      -0.0009
    120  CD2       14.7720   34.8860   28.5790 C.ar   78  TYR78      -0.0009
    121  CE1       17.4090   35.6350   28.1560 C.ar   78  TYR78       0.0417
    122  CE2       15.2040   35.2070   27.2950 C.ar   78  TYR78       0.0417
    123  CZ        16.5240   35.5800   27.0970 C.ar   78  TYR78       0.1957
    124  OH        16.9500   35.9000   25.8340 O.3    78  TYR78      -0.2866
    125  N         14.2800   39.5320   34.6710 N.3    81  HIS81      -0.1226
    126  CA        15.6080   39.9330   35.1040 C.3    81  HIS81       0.1752
    127  C         16.2400   40.8960   34.1130 C.2    81  HIS81       0.2596
    128  O         16.6670   41.9890   34.4830 O.2    81  HIS81      -0.2718
    129  CB        16.5260   38.7270   35.2880 C.3    81  HIS81       0.0759
    130  CG        17.9210   39.1070   35.6870 C.ar   81  HIS81       0.0818
    131  ND1       18.9140   39.3600   34.7680 N.ar   81  HIS81      -0.2268
    132  CD2       18.4590   39.3530   36.9030 C.ar   81  HIS81       0.1154
    133  CE1       20.0060   39.7440   35.3990 C.ar   81  HIS81       0.1986
    134  NE2       19.7600   39.7500   36.6980 N.ar   81  HIS81      -0.2212
    135  N         16.2910   40.4990   32.8450 N.am   82  ASN82      -0.1974
    136  CA        16.8960   41.3570   31.8280 C.3    82  ASN82       0.1688
    137  C         16.1600   42.6760   31.6580 C.2    82  ASN82       0.2292
    138  O         16.7750   43.7160   31.4160 O.2    82  ASN82      -0.2864
    139  CB        16.9780   40.6260   30.4910 C.3    82  ASN82       0.1181
    140  CG        17.9730   39.4960   30.5230 C.2    82  ASN82       0.2629
    141  OD1       18.8680   39.4920   31.3630 O.2    82  ASN82      -0.2716
    142  ND2       17.8430   38.5450   29.6020 N.am   82  ASN82      -0.0877
    143  N         17.4430   44.8390   34.2460 N.3    85  VAL85      -0.1231
    144  CA        18.8030   45.2320   33.9090 C.3    85  VAL85       0.1692
    145  C         18.8840   46.3330   32.8530 C.2    85  VAL85       0.2592
    146  O         19.6490   47.2780   33.0020 O.2    85  VAL85      -0.2718
    147  CB        19.6180   44.0270   33.3950 C.3    85  VAL85       0.0266
    148  CG1       20.9820   44.4940   32.9020 C.3    85  VAL85       0.0020
    149  CG2       19.7780   42.9990   34.5010 C.3    85  VAL85       0.0020
    150  N         18.1030   46.2100   31.7840 N.am   86  GLY86      -0.1957
    151  CA        18.1730   47.2010   30.7240 C.3    86  GLY86       0.1869
    152  C         17.1100   48.2840   30.7050 C.2    86  GLY86       0.2309
    153  O         17.1080   49.1390   29.8200 O.2    86  GLY86      -0.2863
    154  N         17.9660   52.2530   30.1460 N.3    89  PHE89      -0.1227
    155  CA        18.4490   52.7360   28.8560 C.3    89  PHE89       0.1736
    156  C         17.7250   52.1940   27.6320 C.2    89  PHE89       0.2596
    157  O         18.1480   52.4200   26.4960 O.2    89  PHE89      -0.2718
    158  CB        19.9580   52.4880   28.7420 C.3    89  PHE89       0.0547
    159  CG        20.3470   51.0360   28.8020 C.ar   89  PHE89      -0.0202
    160  CD1       20.4720   50.2860   27.6380 C.ar   89  PHE89      -0.0042
    161  CD2       20.5950   50.4220   30.0250 C.ar   89  PHE89      -0.0042
    162  CE1       20.8420   48.9410   27.6830 C.ar   89  PHE89      -0.0003
    163  CE2       20.9660   49.0760   30.0880 C.ar   89  PHE89      -0.0003
    164  CZ        21.0900   48.3320   28.9070 C.ar   89  PHE89      -0.0000
    165  N         16.6290   51.4790   27.8620 N.am   90  THR90      -0.1953
    166  CA        15.8300   50.9500   26.7690 C.3    90  THR90       0.1897
    167  C         14.3860   51.3930   27.0000 C.2    90  THR90       0.2313
    168  O         13.8870   52.2770   26.3110 O.2    90  THR90      -0.2863
    169  CB        15.9100   49.4150   26.7060 C.3    90  THR90       0.1794
    170  OG1       15.5160   48.8560   27.9700 O.3    90  THR90      -0.2208
    171  CG2       17.3400   48.9820   26.3580 C.3    90  THR90       0.0378
@<TRIPOS>BOND
     1    40    39    2
     2    39    38    1
     3     1     2    1
     4    38    41    1
     5    38    37    1
     6    41    42    1
     7     2     3    1
     8     2     5    1
     9     7     5    1
    10     4     3    2
    11     5     6    1
    12    42    44   ar
    13    42    43   ar
    14    44    46   ar
    15    43    45   ar
    16    46    47   ar
    17    74    72   ar
    18    74    73   ar
    19    72    70   ar
    20    45    47   ar
    21    73    71   ar
    22    47    48    1
    23    32    31    2
    24     8     9    1
    25    31    30    1
    26    70    68   ar
    27    70    69   ar
    28    71    68   ar
    29    68    66   ar
    30    17    15   ar
    31    17    16   ar
    32    69    67   ar
    33    15    13   ar
    34     9    10    1
    35     9    12    1
    36    30    29    1
    37    30    33    1
    38    10    11    2
    39    51    52    2
    40    51    50    1
    41    56    58   ar
    42    56    54   ar
    43    16    14   ar
    44    13    12    1
    45    13    14   ar
    46    58    59   ar
    47    53    50    1
    48    53    54    1
    49    67    66   ar
    50    66    65    1
    51    50    49    1
    52    33    34    1
    53    36    34   ar
    54    34    35   ar
    55    54    55   ar
    56    61    62    1
    57    65    62    1
    58    59    60    1
    59    59    57   ar
    60    55    57   ar
    61    62    63    1
    62   124   123    1
    63    20    21    2
    64    20    19    1
    65   168   167    2
    66   171   169    1
    67   157   156    2
    68   169   166    1
    69   169   170    1
    70   166   167    1
    71   166   165    1
    72    63    64    2
    73    26    28   ar
    74    26    24   ar
    75    28    27   ar
    76   123   122   ar
    77   123   121   ar
    78    19    18    1
    79    19    22    1
    80    24    23   ar
    81   122   120   ar
    82    99    98    1
    83    99   100    1
    84    27    25   ar
    85   156   165   am
    86   156   155    1
    87   160   162   ar
    88   160   159   ar
    89   162   164   ar
    90    23    25   ar
    91    23    22    1
    92   121   119   ar
    93    98    97    1
    94    81    80    1
    95   120   118   ar
    96   158   159    1
    97   158   155    1
    98   159   161   ar
    99    97    96    1
   100   155   154    1
   101    80    82    1
   102    80    79    1
   103   164   163   ar
   104   119   118   ar
   105   142   140   am
   106   118   117    1
   107    96    93    1
   108   153   152    2
   109   161   163   ar
   110    79    76    1
   111   139   140    1
   112   139   136    1
   113   140   141    2
   114   152   151    1
   115   151   150    1
   116    93    94    1
   117    93    92    1
   118   105   102    1
   119   117   114    1
   120    95    94    2
   121    78    77    2
   122   138   137    2
   123    77    76    1
   124    76    75    1
   125   116   115    2
   126   137   136    1
   127   115   114    1
   128   150   145   am
   129    92    85   am
   130   136   135    1
   131   114   113    1
   132    90    89    2
   133   102   103    1
   134   102   101    1
   135   103   104    2
   136   135   127   am
   137   145   146    2
   138   145   144    1
   139    85    86    2
   140    85    84    1
   141   148   147    1
   142    87    84    1
   143    87    88    1
   144    89    91   am
   145    89    88    1
   146   147   144    1
   147   147   149    1
   148   113   108   am
   149    84    83    1
   150   144   143    1
   151   127   128    2
   152   127   126    1
   153   109   108    2
   154   108   107    1
   155   125   126    1
   156   131   133   ar
   157   131   130   ar
   158   111   110    1
   159   126   129    1
   160   129   130    1
   161   133   134   ar
   162   130   132   ar
   163   106   107    1
   164   107   110    1
   165   110   112    1
   166   134   132   ar
