@<TRIPOS>MOLECULE
tmp/1d5zA00.pdb
 147 141 0 0 0
SMALL
GASTEIGER

@<TRIPOS>ATOM
      1  N         11.9390   41.8690   24.1380 N.3     5  ILE5       -0.1245
      2  CA        13.3820   41.7370   24.1510 C.3     5  ILE5        0.1561
      3  C         13.6470   40.3730   23.5440 C.2     5  ILE5        0.2260
      4  O         13.0930   39.3600   23.9860 O.2     5  ILE5       -0.2867
      5  CB        13.9720   41.7770   25.5700 C.3     5  ILE5        0.0252
      6  CG1       13.6910   43.1260   26.2340 C.3     5  ILE5        0.0019
      7  CG2       15.4750   41.5450   25.5060 C.3     5  ILE5        0.0019
      8  CD1       14.2340   43.2120   27.6710 C.3     5  ILE5        0.0001
      9  N         16.6360   37.6030   22.2190 N.3     7  GLN7       -0.1245
     10  CA        18.0120   37.1370   22.1330 C.3     7  GLN7        0.1566
     11  C         17.9420   36.3350   20.8420 C.2     7  GLN7        0.2260
     12  O         17.3340   35.2590   20.8050 O.2     7  GLN7       -0.2867
     13  CB        18.3400   36.2140   23.2970 C.3     7  GLN7        0.0367
     14  CG        19.7520   35.6400   23.2840 C.3     7  GLN7        0.0905
     15  CD        19.9630   34.7000   24.4440 C.2     7  GLN7        0.2608
     16  OE1       19.5860   35.0140   25.5700 O.2     7  GLN7       -0.2717
     17  NE2       20.5570   33.5380   24.1770 N.am    7  GLN7       -0.0878
     18  N         19.8870   34.4830   17.5980 N.3     9  GLU9       -0.1245
     19  CA        21.1380   33.8630   17.2240 C.3     9  GLU9        0.1567
     20  C         20.9240   33.1170   15.9220 C.2     9  GLU9        0.2260
     21  O         19.7930   32.8110   15.5290 O.2     9  GLU9       -0.2867
     22  CB        21.5850   32.8590   18.3030 C.3     9  GLU9        0.0388
     23  CG        20.8530   32.9990   19.6400 C.3     9  GLU9        0.1160
     24  CD        21.1340   31.8730   20.6060 C.2     9  GLU9        0.3649
     25  OE1       21.3370   30.7140   20.1820 O.co2   9  GLU9       -0.2457
     26  OE2       21.1240   32.1430   21.8170 O.co2   9  GLU9       -0.2457
     27  N         25.0710   36.4180   17.5700 N.3    20  PHE20      -0.1241
     28  CA        24.3690   36.3830   18.8380 C.3    20  PHE20       0.1605
     29  C         24.1240   37.8300   19.1810 C.2    20  PHE20       0.2264
     30  O         25.0800   38.6010   19.3350 O.2    20  PHE20      -0.2867
     31  CB        25.2400   35.7740   19.9350 C.3    20  PHE20       0.0534
     32  CG        24.5550   35.6870   21.2650 C.ar   20  PHE20      -0.0203
     33  CD1       24.0600   34.4760   21.7240 C.ar   20  PHE20      -0.0042
     34  CD2       24.4000   36.8150   22.0580 C.ar   20  PHE20      -0.0042
     35  CE1       23.4200   34.3870   22.9610 C.ar   20  PHE20      -0.0003
     36  CE2       23.7590   36.7390   23.3010 C.ar   20  PHE20      -0.0003
     37  CZ        23.2690   35.5220   23.7540 C.ar   20  PHE20      -0.0000
     38  N         21.0640   40.8080   21.0380 N.3    22  PHE22      -0.1241
     39  CA        19.8770   41.1100   21.8090 C.3    22  PHE22       0.1605
     40  C         19.2060   42.2560   21.0810 C.2    22  PHE22       0.2264
     41  O         19.8630   43.2130   20.6680 O.2    22  PHE22      -0.2867
     42  CB        20.2350   41.5440   23.2290 C.3    22  PHE22       0.0534
     43  CG        20.0860   40.4560   24.2480 C.ar   22  PHE22      -0.0203
     44  CD1       20.9140   39.3410   24.2260 C.ar   22  PHE22      -0.0042
     45  CD2       19.1270   40.5590   25.2470 C.ar   22  PHE22      -0.0042
     46  CE1       20.7930   38.3430   25.1960 C.ar   22  PHE22      -0.0003
     47  CE2       18.9930   39.5690   26.2220 C.ar   22  PHE22      -0.0003
     48  CZ        19.8300   38.4570   26.1970 C.ar   22  PHE22      -0.0000
     49  N         20.6030   45.9240   20.9800 N.3    29  ILE29      -0.1231
     50  CA        21.1900   46.3700   22.2280 C.3    29  ILE29       0.1692
     51  C         22.6840   46.0940   22.0880 C.2    29  ILE29       0.2592
     52  O         23.5180   46.9680   22.3100 O.2    29  ILE29      -0.2718
     53  CB        20.6710   45.5850   23.4310 C.3    29  ILE29       0.0266
     54  CG1       19.1420   45.5850   23.4570 C.3    29  ILE29       0.0019
     55  CG2       21.2230   46.2000   24.6950 C.3    29  ILE29       0.0020
     56  CD1       18.5640   44.9540   24.7050 C.3    29  ILE29       0.0001
     57  N         23.0120   44.8670   21.7000 N.am   30  PHE30      -0.1976
     58  CA        24.4040   44.4900   21.5190 C.3    30  PHE30       0.1639
     59  C         24.5000   43.2070   20.7260 C.2    30  PHE30       0.2290
     60  O         23.5010   42.5280   20.5000 O.2    30  PHE30      -0.2864
     61  CB        25.0680   44.2730   22.8890 C.3    30  PHE30       0.0560
     62  CG        24.6340   43.0050   23.5830 C.ar   30  PHE30      -0.0200
     63  CD1       25.2270   41.7770   23.2710 C.ar   30  PHE30      -0.0042
     64  CD2       23.6080   43.0330   24.5260 C.ar   30  PHE30      -0.0042
     65  CE1       24.8010   40.6070   23.8830 C.ar   30  PHE30      -0.0003
     66  CE2       23.1700   41.8700   25.1440 C.ar   30  PHE30      -0.0003
     67  CZ        23.7650   40.6530   24.8270 C.ar   30  PHE30      -0.0000
     68  N         28.3010   46.7300   22.3380 N.3    41  TRP41      -0.1241
     69  CA        27.0860   47.5110   22.5830 C.3    41  TRP41       0.1605
     70  C         26.7560   48.3730   21.3700 C.2    41  TRP41       0.2264
     71  O         27.6420   48.9880   20.7950 O.2    41  TRP41      -0.2867
     72  CB        27.2840   48.3900   23.8150 C.3    41  TRP41       0.0550
     73  CG        27.5640   47.5810   25.0310 C.ar   41  TRP41       0.0003
     74  CD1       28.7750   47.3640   25.6180 C.ar   41  TRP41       0.0946
     75  CD2       26.6030   46.8360   25.7880 C.ar   41  TRP41       0.0152
     76  NE1       28.6260   46.5240   26.7030 N.ar   41  TRP41      -0.2442
     77  CE2       27.3140   46.1880   26.8280 C.ar   41  TRP41       0.0810
     78  CE3       25.2200   46.6590   25.6800 C.ar   41  TRP41       0.0012
     79  CZ2       26.6680   45.3650   27.7650 C.ar   41  TRP41       0.0191
     80  CZ3       24.5830   45.8460   26.6070 C.ar   41  TRP41       0.0001
     81  CH2       25.3140   45.2070   27.6410 C.ar   41  TRP41       0.0015
     82  N         24.9600   48.5130   31.7530 N.3    50  ALA50      -0.1231
     83  CA        24.7650   47.0760   31.8920 C.3    50  ALA50       0.1694
     84  C         26.0080   46.3050   31.4750 C.2    50  ALA50       0.2593
     85  O         26.9820   46.8780   30.9900 O.2    50  ALA50      -0.2718
     86  CB        23.5630   46.6240   31.0610 C.3    50  ALA50       0.0304
     87  N         25.9740   44.9980   31.6880 N.am   51  SER51      -0.1938
     88  CA        27.0890   44.1440   31.3130 C.3    51  SER51       0.2055
     89  C         26.5430   42.8300   30.7890 C.2    51  SER51       0.2643
     90  O         25.3800   42.4940   31.0140 O.2    51  SER51      -0.2714
     91  CB        27.9670   43.8530   32.5280 C.3    51  SER51       0.2130
     92  OG        27.2440   43.0670   33.4580 O.3    51  SER51      -0.2179
     93  N         27.4040   42.0810   30.1130 N.am   52  PHE52      -0.1959
     94  CA        27.0450   40.7810   29.5590 C.3    52  PHE52       0.1771
     95  C         28.3270   40.0170   29.2990 C.2    52  PHE52       0.2619
     96  O         29.2830   40.5660   28.7440 O.2    52  PHE52      -0.2715
     97  CB        26.2840   40.9320   28.2390 C.3    52  PHE52       0.0574
     98  CG        25.9430   39.6190   27.5890 C.ar   52  PHE52      -0.0200
     99  CD1       24.9460   38.8090   28.1110 C.ar   52  PHE52      -0.0042
    100  CD2       26.6530   39.1740   26.4830 C.ar   52  PHE52      -0.0042
    101  CE1       24.6640   37.5720   27.5490 C.ar   52  PHE52      -0.0003
    102  CE2       26.3810   37.9340   25.9090 C.ar   52  PHE52      -0.0003
    103  CZ        25.3840   37.1310   26.4400 C.ar   52  PHE52      -0.0000
    104  N         28.3450   38.7500   29.6910 N.am   53  GLU53      -0.1977
    105  CA        29.5230   37.9220   29.4800 C.3    53  GLU53       0.1602
    106  C         29.4780   37.4020   28.0550 C.2    53  GLU53       0.2287
    107  O         28.8530   36.3800   27.7840 O.2    53  GLU53      -0.2864
    108  CB        29.5350   36.7510   30.4630 C.3    53  GLU53       0.0415
    109  CG        29.8350   37.1300   31.9000 C.3    53  GLU53       0.1163
    110  CD        31.1940   37.7670   32.0600 C.2    53  GLU53       0.3649
    111  OE1       32.1790   37.2450   31.4910 O.co2  53  GLU53      -0.2457
    112  OE2       31.2900   38.7910   32.7640 O.co2  53  GLU53      -0.2457
    113  N         29.7510   33.7360   27.1560 N.3    56  GLY56      -0.1225
    114  CA        28.6550   32.8130   27.3680 C.3    56  GLY56       0.1811
    115  C         27.9240   32.5480   26.0660 C.2    56  GLY56       0.2280
    116  O         27.2910   31.5080   25.9000 O.2    56  GLY56      -0.2866
    117  N         25.9070   29.0510   23.1070 N.3    60  ASN60      -0.1240
    118  CA        24.7060   29.0240   22.2790 C.3    60  ASN60       0.1653
    119  C         25.0210   28.7510   20.8140 C.2    60  ASN60       0.2266
    120  O         24.3630   27.9310   20.1790 O.2    60  ASN60      -0.2867
    121  CB        23.9520   30.3460   22.3710 C.3    60  ASN60       0.1155
    122  CG        23.3980   30.6010   23.7480 C.2    60  ASN60       0.2627
    123  OD1       24.1360   30.9050   24.6930 O.2    60  ASN60      -0.2716
    124  ND2       22.0890   30.4750   23.8750 N.am   60  ASN60      -0.0877
    125  N         25.8070   25.1840   20.2020 N.3    63  VAL63      -0.1231
    126  CA        24.6180   24.3500   20.1480 C.3    63  VAL63       0.1692
    127  C         23.8850   24.5890   18.8360 C.2    63  VAL63       0.2592
    128  O         23.3770   23.6540   18.2240 O.2    63  VAL63      -0.2718
    129  CB        23.6510   24.6610   21.3030 C.3    63  VAL63       0.0266
    130  CG1       22.3290   23.9480   21.0680 C.3    63  VAL63       0.0020
    131  CG2       24.2770   24.2410   22.6350 C.3    63  VAL63       0.0020
    132  N         23.8340   25.8450   18.4070 N.am   64  ASP64      -0.1974
    133  CA        23.1380   26.1750   17.1740 C.3    64  ASP64       0.1709
    134  C         23.7760   25.4740   15.9860 C.2    64  ASP64       0.2293
    135  O         23.0660   25.0120   15.0900 O.2    64  ASP64      -0.2864
    136  CB        23.1020   27.6930   16.9580 C.3    64  ASP64       0.1436
    137  CG        22.3110   28.4130   18.0340 C.2    64  ASP64       0.3671
    138  OD1       21.4930   27.7600   18.7110 O.co2  64  ASP64      -0.2456
    139  OD2       22.4890   29.6380   18.2000 O.co2  64  ASP64      -0.2456
    140  N         22.7200   21.9160   16.2150 N.3    67  ASN67      -0.1240
    141  CA        21.3230   21.8290   15.8030 C.3    67  ASN67       0.1653
    142  C         21.1810   21.9850   14.3060 C.2    67  ASN67       0.2266
    143  O         20.3880   21.2780   13.7030 O.2    67  ASN67      -0.2867
    144  CB        20.4600   22.8910   16.4910 C.3    67  ASN67       0.1155
    145  CG        20.3040   22.6360   17.9640 C.2    67  ASN67       0.2627
    146  OD1       20.2300   21.4890   18.3940 O.2    67  ASN67      -0.2716
    147  ND2       20.2340   23.6990   18.7470 N.am   67  ASN67      -0.0877
@<TRIPOS>BOND
     1   143   142    2
     2   142   141    1
     3   135   134    2
     4    21    20    2
     5   141   140    1
     6   141   144    1
     7    20    19    1
     8   134   133    1
     9   144   145    1
    10   136   133    1
    11   136   137    1
    12   133   132    1
    13    19    18    1
    14    19    22    1
    15    27    28    1
    16   145   146    2
    17   145   147   am
    18   137   139   ar
    19   137   138   ar
    20   128   127    2
    21    22    23    1
    22   132   127   am
    23   127   126    1
    24    28    29    1
    25    28    31    1
    26    29    30    2
    27    23    24    1
    28    31    32    1
    29   126   125    1
    30   126   129    1
    31   120   119    2
    32    25    24   ar
    33    60    59    2
    34    24    26   ar
    35    41    40    2
    36    59    58    1
    37    71    70    2
    38    12    11    2
    39   119   118    1
    40    11    10    1
    41    49    50    1
    42    38    39    1
    43   130   129    1
    44    40    39    1
    45    32    33   ar
    46    32    34   ar
    47   129   131    1
    48    70    69    1
    49    58    57    1
    50    58    61    1
    51    57    51   am
    52    33    35   ar
    53    39    42    1
    54    34    36   ar
    55    51    50    1
    56    51    52    2
    57    10     9    1
    58    10    13    1
    59    50    53    1
    60   118   121    1
    61   118   117    1
    62    68    69    1
    63   121   122    1
    64    69    72    1
    65    61    62    1
    66    35    37   ar
    67    42    43    1
    68    63    62   ar
    69    63    65   ar
    70    14    13    1
    71    14    15    1
    72    36    37   ar
    73    53    54    1
    74    53    55    1
    75    54    56    1
    76     3     4    2
    77     3     2    1
    78    62    64   ar
    79   122   124   am
    80   122   123    2
    81    72    73    1
    82    65    67   ar
    83     1     2    1
    84     2     5    1
    85    17    15   am
    86    44    43   ar
    87    44    46   ar
    88    43    45   ar
    89    15    16    2
    90    64    66   ar
    91    67    66   ar
    92    73    74   ar
    93    73    75   ar
    94    46    48   ar
    95    45    47   ar
    96     7     5    1
    97     5     6    1
    98    74    76   ar
    99    78    75   ar
   100    78    80   ar
   101    75    77   ar
   102   116   115    2
   103   102   103   ar
   104   102   100   ar
   105   115   114    1
   106    48    47   ar
   107     6     8    1
   108   103   101   ar
   109   100    98   ar
   110    80    81   ar
   111    76    77   ar
   112    77    79   ar
   113   113   114    1
   114   101    99   ar
   115    98    99   ar
   116    98    97    1
   117    81    79   ar
   118   107   106    2
   119   106   105    1
   120    97    94    1
   121    96    95    2
   122    95    94    1
   123    95   104   am
   124   105   104    1
   125   105   108    1
   126    94    93    1
   127    93    89   am
   128   108   109    1
   129    89    90    2
   130    89    88    1
   131    85    84    2
   132    86    83    1
   133    88    87    1
   134    88    91    1
   135    84    87   am
   136    84    83    1
   137   111   110   ar
   138    82    83    1
   139   109   110    1
   140   110   112   ar
   141    91    92    1
