@<TRIPOS>MOLECULE
tmp/1d6aB00.pdb
 101 98 0 0 0
SMALL
GASTEIGER

@<TRIPOS>ATOM
      1  N         61.2550   36.3220   -9.1300 N.3    71  LEU71      -0.1231
      2  CA        61.8820   35.8310   -7.8970 C.3    71  LEU71       0.1693
      3  C         63.2070   35.0930   -8.0640 C.2    71  LEU71       0.2592
      4  O         63.6370   34.3850   -7.1510 O.2    71  LEU71      -0.2718
      5  CB        60.9220   34.9810   -7.0530 C.3    71  LEU71       0.0284
      6  CG        59.9840   35.7000   -6.0760 C.3    71  LEU71       0.0019
      7  CD1       59.4800   34.6850   -5.0520 C.3    71  LEU71       0.0001
      8  CD2       60.6970   36.8440   -5.3550 C.3    71  LEU71       0.0001
      9  N         63.8660   35.2500   -9.2090 N.am   72  TYR72      -0.1962
     10  CA        65.1480   34.5760   -9.4040 C.3    72  TYR72       0.1771
     11  C         66.2240   35.2720   -8.5940 C.2    72  TYR72       0.2619
     12  O         66.1850   36.4790   -8.4080 O.2    72  TYR72      -0.2715
     13  CB        65.5670   34.5710  -10.8720 C.3    72  TYR72       0.0574
     14  CG        64.8310   33.5830  -11.7530 C.ar   72  TYR72      -0.0198
     15  CD1       65.4720   32.9860  -12.8360 C.ar   72  TYR72      -0.0009
     16  CD2       63.5030   33.2590  -11.5200 C.ar   72  TYR72      -0.0009
     17  CE1       64.8090   32.0910  -13.6610 C.ar   72  TYR72       0.0417
     18  CE2       62.8260   32.3660  -12.3430 C.ar   72  TYR72       0.0417
     19  CZ        63.4850   31.7860  -13.4090 C.ar   72  TYR72       0.1957
     20  OH        62.8220   30.8960  -14.2190 O.3    72  TYR72      -0.2866
     21  N         67.1660   34.4920   -8.0880 N.am   73  VAL73      -0.1977
     22  CA        68.2770   35.0150   -7.3190 C.3    73  VAL73       0.1596
     23  C         69.3120   35.4740   -8.3400 C.2    73  VAL73       0.2287
     24  O         69.7570   34.6950   -9.1850 O.2    73  VAL73      -0.2864
     25  CB        68.8900   33.9230   -6.3960 C.3    73  VAL73       0.0276
     26  CG1       70.1990   34.4040   -5.8140 C.3    73  VAL73       0.0022
     27  CG2       67.9070   33.5500   -5.2720 C.3    73  VAL73       0.0022
     28  N         75.7470   36.1600  -10.5860 N.3    90  PHE90      -0.1241
     29  CA        75.5940   34.9690  -11.4050 C.3    90  PHE90       0.1605
     30  C         76.0940   35.2280  -12.8120 C.2    90  PHE90       0.2264
     31  O         75.9220   36.3150  -13.3570 O.2    90  PHE90      -0.2867
     32  CB        74.1400   34.5400  -11.4630 C.3    90  PHE90       0.0534
     33  CG        73.8000   33.4390  -10.5080 C.ar   90  PHE90      -0.0203
     34  CD1       74.4890   32.2340  -10.5560 C.ar   90  PHE90      -0.0042
     35  CD2       72.7860   33.6050   -9.5640 C.ar   90  PHE90      -0.0042
     36  CE1       74.1730   31.2050   -9.6780 C.ar   90  PHE90      -0.0003
     37  CE2       72.4570   32.5910   -8.6830 C.ar   90  PHE90      -0.0003
     38  CZ        73.1490   31.3870   -8.7370 C.ar   90  PHE90      -0.0000
     39  N         72.5250   30.0890  -13.0340 N.3   121  SER121     -0.1202
     40  CA        71.5690   29.6980  -12.0100 C.3   121  SER121      0.2020
     41  C         70.5880   28.5790  -12.3610 C.2   121  SER121      0.2619
     42  O         69.6410   28.3420  -11.6160 O.2   121  SER121     -0.2717
     43  CB        70.7930   30.9280  -11.5440 C.3   121  SER121      0.2103
     44  OG        70.0850   31.5040  -12.6190 O.3   121  SER121     -0.2182
     45  N         70.7860   27.9040  -13.4870 N.am  122  ARG122     -0.1965
     46  CA        69.8760   26.8230  -13.8570 C.3   122  ARG122      0.1729
     47  C         70.1440   25.6110  -12.9770 C.2   122  ARG122      0.2616
     48  O         71.3010   25.2900  -12.7010 O.2   122  ARG122     -0.2715
     49  CB        70.0430   26.4260  -15.3320 C.3   122  ARG122      0.0348
     50  CG        69.6540   27.5030  -16.3330 C.3   122  ARG122      0.0492
     51  CD        69.5460   26.9340  -17.7490 C.3   122  ARG122      0.2205
     52  NE        70.6870   26.0880  -18.0970 N.pl3 122  ARG122     -0.0865
     53  CZ        70.5790   24.8370  -18.5260 C.cat 122  ARG122      0.5346
     54  NH1       69.3790   24.2840  -18.6710 N.pl3 122  ARG122      0.1354
     55  NH2       71.6720   24.1300  -18.7740 N.pl3 122  ARG122      0.1354
     56  N         69.0760   24.9160  -12.5860 N.am  123  TYR123     -0.1974
     57  CA        69.1970   23.7390  -11.7360 C.3   123  TYR123      0.1639
     58  C         70.1600   22.6800  -12.2390 C.2   123  TYR123      0.2290
     59  O         70.9850   22.1990  -11.4720 O.2   123  TYR123     -0.2864
     60  CB        67.8280   23.1360  -11.4400 C.3   123  TYR123      0.0560
     61  CG        67.0780   23.8570  -10.3390 C.ar  123  TYR123     -0.0198
     62  CD1       67.7230   24.2300   -9.1570 C.ar  123  TYR123     -0.0009
     63  CD2       65.7200   24.1500  -10.4690 C.ar  123  TYR123     -0.0009
     64  CE1       67.0320   24.8810   -8.1270 C.ar  123  TYR123      0.0417
     65  CE2       65.0180   24.7950   -9.4470 C.ar  123  TYR123      0.0417
     66  CZ        65.6860   25.1590   -8.2810 C.ar  123  TYR123      0.1957
     67  OH        65.0090   25.8230   -7.2940 O.3   123  TYR123     -0.2866
     68  N         67.9900   28.6750   -2.6910 N.3   171  ILE171     -0.1245
     69  CA        66.9940   28.9280   -3.7270 C.3   171  ILE171      0.1561
     70  C         65.6900   28.1970   -3.4610 C.2   171  ILE171      0.2260
     71  O         64.6140   28.7780   -3.5890 O.2   171  ILE171     -0.2867
     72  CB        67.5230   28.5730   -5.1540 C.3   171  ILE171      0.0252
     73  CG1       68.5660   29.6030   -5.5940 C.3   171  ILE171      0.0019
     74  CG2       66.3690   28.5800   -6.1640 C.3   171  ILE171      0.0019
     75  CD1       69.3480   29.2090   -6.8190 C.3   171  ILE171      0.0001
     76  N         63.2030   31.2480   -2.5120 N.3   175  SER175     -0.1202
     77  CA        62.3980   31.5250   -3.7060 C.3   175  SER175      0.2020
     78  C         61.3200   30.4820   -3.9990 C.2   175  SER175      0.2618
     79  O         60.1610   30.8360   -4.1880 O.2   175  SER175     -0.2717
     80  CB        63.2930   31.7000   -4.9400 C.3   175  SER175      0.2103
     81  OG        64.1440   32.8190   -4.7910 O.3   175  SER175     -0.2182
     82  N         61.6880   29.2010   -4.0140 N.am  176  GLU176     -0.1979
     83  CA        60.7040   28.1530   -4.3110 C.3   176  GLU176      0.1602
     84  C         59.6360   28.0110   -3.2440 C.2   176  GLU176      0.2287
     85  O         58.4990   27.6700   -3.5560 O.2   176  GLU176     -0.2864
     86  CB        61.3850   26.8110   -4.5580 C.3   176  GLU176      0.0415
     87  CG        62.4370   26.8590   -5.6490 C.3   176  GLU176      0.1163
     88  CD        61.8670   27.0220   -7.0590 C.2   176  GLU176      0.3649
     89  OE1       60.6970   27.4390   -7.2310 O.co2 176  GLU176     -0.2457
     90  OE2       62.6060   26.7180   -8.0090 O.co2 176  GLU176     -0.2457
     91  N         57.0870   30.9020   -3.6700 N.3   179  ARG179     -0.1245
     92  CA        56.1850   30.7000   -4.7990 C.3   179  ARG179      0.1563
     93  C         55.1290   29.6480   -4.5410 C.2   179  ARG179      0.2260
     94  O         53.9880   29.8050   -4.9660 O.2   179  ARG179     -0.2867
     95  CB        56.9650   30.3150   -6.0640 C.3   179  ARG179      0.0307
     96  CG        57.8860   31.3950   -6.5560 C.3   179  ARG179      0.0489
     97  CD        58.4680   31.0710   -7.9110 C.3   179  ARG179      0.2205
     98  NE        59.7110   30.3240   -7.8670 N.pl3 179  ARG179     -0.0865
     99  CZ        60.8460   30.7220   -8.4340 C.cat 179  ARG179      0.5346
    100  NH1       60.9120   31.8640   -9.0980 N.pl3 179  ARG179      0.1354
    101  NH2       61.9350   29.9870   -8.3060 N.pl3 179  ARG179      0.1354
@<TRIPOS>BOND
     1    55    53    1
     2    54    53    1
     3    53    52    2
     4    52    51    1
     5    51    50    1
     6    50    49    1
     7    49    46    1
     8    20    19    1
     9    46    45    1
    10    46    47    1
    11    17    19   ar
    12    17    15   ar
    13    45    41   am
    14    19    18   ar
    15    31    30    2
    16    39    40    1
    17    47    48    2
    18    47    56   am
    19    15    14   ar
    20    30    29    1
    21    44    43    1
    22    56    57    1
    23    41    40    1
    24    41    42    2
    25    18    16   ar
    26    58    57    1
    27    58    59    2
    28    40    43    1
    29    14    16   ar
    30    14    13    1
    31    57    60    1
    32    32    29    1
    33    32    33    1
    34    60    61    1
    35    29    28    1
    36    13    10    1
    37    34    33   ar
    38    34    36   ar
    39    33    35   ar
    40    63    61   ar
    41    63    65   ar
    42    61    62   ar
    43    36    38   ar
    44    35    37   ar
    45    65    66   ar
    46    10     9    1
    47    10    11    1
    48     9     3   am
    49    24    23    2
    50    62    64   ar
    51     1     2    1
    52   100    99    1
    53    38    37   ar
    54    11    12    2
    55    11    21   am
    56    99   101    1
    57    99    98    2
    58    23    22    1
    59    66    64   ar
    60    66    67    1
    61    21    22    1
    62     3     2    1
    63     3     4    2
    64    90    88   ar
    65    97    98    1
    66    97    96    1
    67     2     5    1
    68    22    25    1
    69    89    88   ar
    70    88    87    1
    71     5     6    1
    72    75    73    1
    73    96    95    1
    74    25    26    1
    75    25    27    1
    76    74    72    1
    77     6     8    1
    78     6     7    1
    79    95    92    1
    80    87    86    1
    81    73    72    1
    82    72    69    1
    83    94    93    2
    84    80    81    1
    85    80    77    1
    86    92    93    1
    87    92    91    1
    88    86    83    1
    89    83    82    1
    90    83    84    1
    91    79    78    2
    92    82    78   am
    93    78    77    1
    94    69    70    1
    95    69    68    1
    96    77    76    1
    97    71    70    2
    98    85    84    2
