@<TRIPOS>MOLECULE
tmp/1d6eB00.pdb
 180 174 0 0 0
SMALL
GASTEIGER

@<TRIPOS>ATOM
      1  N         42.8380   42.4090    6.0590 N.3     9  VAL9       -0.1245
      2  CA        43.4720   43.6960    5.8380 C.3     9  VAL9        0.1561
      3  C         43.8550   44.2370    7.2050 C.2     9  VAL9        0.2260
      4  O         43.0540   44.2100    8.1340 O.2     9  VAL9       -0.2867
      5  CB        42.5230   44.7150    5.1690 C.3     9  VAL9        0.0252
      6  CG1       43.2750   46.0250    4.9120 C.3     9  VAL9        0.0019
      7  CG2       41.9670   44.1610    3.8730 C.3     9  VAL9        0.0019
      8  N         45.6480   47.6590    8.9320 N.3    11  HIS11      -0.1241
      9  CA        46.2120   48.9970    8.8720 C.3    11  HIS11       0.1621
     10  C         46.8310   49.1910   10.2670 C.2    11  HIS11       0.2264
     11  O         46.1130   49.3670   11.2530 O.2    11  HIS11      -0.2867
     12  CB        45.1140   50.0390    8.6350 C.3    11  HIS11       0.0745
     13  CG        44.1670   49.6850    7.5300 C.ar   11  HIS11       0.0817
     14  ND1       42.9180   49.1440    7.7580 N.ar   11  HIS11      -0.2268
     15  CD2       44.2900   49.7890    6.1870 C.ar   11  HIS11       0.1154
     16  CE1       42.3130   48.9330    6.6030 C.ar   11  HIS11       0.1986
     17  NE2       43.1230   49.3150    5.6340 N.ar   11  HIS11      -0.2212
     18  N         53.7330   53.5740    9.8610 N.3    24  PHE24      -0.1241
     19  CA        52.4440   53.1170    9.3600 C.3    24  PHE24       0.1605
     20  C         52.5870   51.9870    8.3400 C.2    24  PHE24       0.2264
     21  O         53.4670   52.0180    7.4780 O.2    24  PHE24      -0.2867
     22  CB        51.6880   54.2970    8.7330 C.3    24  PHE24       0.0534
     23  CG        50.4570   53.8910    7.9640 C.ar   24  PHE24      -0.0203
     24  CD1       49.4050   53.2450    8.6140 C.ar   24  PHE24      -0.0042
     25  CD2       50.3580   54.1360    6.5840 C.ar   24  PHE24      -0.0042
     26  CE1       48.2700   52.8400    7.9080 C.ar   24  PHE24      -0.0003
     27  CE2       49.2340   53.7380    5.8650 C.ar   24  PHE24      -0.0003
     28  CZ        48.1830   53.0870    6.5300 C.ar   24  PHE24      -0.0000
     29  N         50.1890   49.4540    5.6890 N.3    26  ASP26      -0.1239
     30  CA        48.9180   49.1030    5.0600 C.3    26  ASP26       0.1674
     31  C         49.1470   47.7000    4.4830 C.2    26  ASP26       0.2266
     32  O         49.7760   47.5370    3.4360 O.2    26  ASP26      -0.2867
     33  CB        48.5670   50.1080    3.9610 C.3    26  ASP26       0.1410
     34  CG        47.0690   50.2940    3.8150 C.2    26  ASP26       0.3668
     35  OD1       46.4230   50.5040    4.8600 O.co2  26  ASP26      -0.2456
     36  OD2       46.5380   50.2300    2.6820 O.co2  26  ASP26      -0.2456
     37  N         47.8580   43.7620    3.2160 N.3    28  TYR28      -0.1241
     38  CA        46.7900   42.9490    2.6460 C.3    28  TYR28       0.1605
     39  C         47.1970   41.4820    2.6250 C.2    28  TYR28       0.2264
     40  O         48.3440   41.1530    2.3210 O.2    28  TYR28      -0.2867
     41  CB        46.4460   43.4480    1.2470 C.3    28  TYR28       0.0534
     42  CG        45.9120   44.8580    1.2890 C.ar   28  TYR28      -0.0201
     43  CD1       46.7500   45.9240    1.5930 C.ar   28  TYR28      -0.0009
     44  CD2       44.5530   45.1140    1.1170 C.ar   28  TYR28      -0.0009
     45  CE1       46.2560   47.2040    1.7320 C.ar   28  TYR28       0.0417
     46  CE2       44.0370   46.3980    1.2550 C.ar   28  TYR28       0.0417
     47  CZ        44.8940   47.4380    1.5660 C.ar   28  TYR28       0.1957
     48  OH        44.3890   48.7120    1.7300 O.3    28  TYR28      -0.2866
     49  N         53.7520   51.2160   -2.3260 N.3    45  TYR45      -0.1241
     50  CA        53.2620   49.8590   -2.1620 C.3    45  TYR45       0.1605
     51  C         54.2850   48.9390   -2.8030 C.2    45  TYR45       0.2264
     52  O         54.7280   49.1880   -3.9180 O.2    45  TYR45      -0.2867
     53  CB        51.9070   49.6600   -2.8600 C.3    45  TYR45       0.0534
     54  CG        50.7150   50.1120   -2.0410 C.ar   45  TYR45      -0.0201
     55  CD1       50.2150   51.4080   -2.1540 C.ar   45  TYR45      -0.0009
     56  CD2       50.1260   49.2620   -1.1080 C.ar   45  TYR45      -0.0009
     57  CE1       49.1640   51.8530   -1.3560 C.ar   45  TYR45       0.0417
     58  CE2       49.0700   49.6990   -0.3000 C.ar   45  TYR45       0.0417
     59  CZ        48.5970   51.0000   -0.4270 C.ar   45  TYR45       0.1957
     60  OH        47.6000   51.4770    0.3980 O.3    45  TYR45      -0.2866
     61  N         48.1770   50.6320   -7.8270 N.3    59  TRP59      -0.1241
     62  CA        47.9750   51.5860   -6.7450 C.3    59  TRP59       0.1605
     63  C         49.0160   52.6960   -6.7360 C.2    59  TRP59       0.2264
     64  O         48.6950   53.8420   -6.4220 O.2    59  TRP59      -0.2867
     65  CB        47.9680   50.8740   -5.3860 C.3    59  TRP59       0.0550
     66  CG        46.8190   49.9150   -5.2360 C.ar   59  TRP59       0.0003
     67  CD1       45.6690   49.8950   -5.9780 C.ar   59  TRP59       0.0946
     68  CD2       46.6930   48.8550   -4.2760 C.ar   59  TRP59       0.0152
     69  NE1       44.8380   48.8870   -5.5420 N.ar   59  TRP59      -0.2442
     70  CE2       45.4390   48.2340   -4.5000 C.ar   59  TRP59       0.0810
     71  CE3       47.5130   48.3700   -3.2490 C.ar   59  TRP59       0.0012
     72  CZ2       44.9860   47.1540   -3.7330 C.ar   59  TRP59       0.0191
     73  CZ3       47.0620   47.2940   -2.4840 C.ar   59  TRP59       0.0001
     74  CH2       45.8080   46.6990   -2.7320 C.ar   59  TRP59       0.0015
     75  N         48.3630   55.7190   -8.9360 N.3    62  GLN62      -0.1245
     76  CA        47.3940   56.6910   -8.4360 C.3    62  GLN62       0.1566
     77  C         48.0200   57.6360   -7.4100 C.2    62  GLN62       0.2260
     78  O         48.0990   57.3210   -6.2230 O.2    62  GLN62      -0.2867
     79  CB        46.2050   55.9650   -7.8040 C.3    62  GLN62       0.0367
     80  CG        45.3000   55.2410   -8.7930 C.3    62  GLN62       0.0905
     81  CD        44.0460   54.6890   -8.1300 C.2    62  GLN62       0.2608
     82  OE1       44.1160   53.7880   -7.2930 O.2    62  GLN62      -0.2717
     83  NE2       42.8910   55.2350   -8.4980 N.am   62  GLN62      -0.0878
     84  N         45.9230   58.4690   -3.9970 N.3    65  LEU65      -0.1245
     85  CA        45.9460   57.6570   -2.7900 C.3    65  LEU65       0.1561
     86  C         47.3240   57.5620   -2.1310 C.2    65  LEU65       0.2260
     87  O         47.4260   57.2950   -0.9320 O.2    65  LEU65      -0.2867
     88  CB        45.3630   56.2610   -3.0730 C.3    65  LEU65       0.0270
     89  CG        46.0460   55.2770   -4.0190 C.3    65  LEU65       0.0019
     90  CD1       47.3260   54.7820   -3.3870 C.3    65  LEU65       0.0001
     91  CD2       45.1320   54.0890   -4.2840 C.3    65  LEU65       0.0001
     92  N         47.4570   60.2620    0.3030 N.3    68  GLN68      -0.1231
     93  CA        46.7000   59.8710    1.4890 C.3    68  GLN68       0.1698
     94  C         47.5080   58.9760    2.4390 C.2    68  GLN68       0.2592
     95  O         47.5840   59.2370    3.6470 O.2    68  GLN68      -0.2718
     96  CB        45.4320   59.1250    1.0810 C.3    68  GLN68       0.0381
     97  CG        44.3600   59.9630    0.4010 C.3    68  GLN68       0.0905
     98  CD        43.1610   59.1130   -0.0180 C.2    68  GLN68       0.2608
     99  OE1       42.5430   58.4430    0.8110 O.2    68  GLN68      -0.2717
    100  NE2       42.8340   59.1330   -1.3120 N.am   68  GLN68      -0.0878
    101  N         48.0940   57.9130    1.8960 N.am   69  LYS69      -0.1980
    102  CA        48.8950   56.9900    2.7040 C.3    69  LYS69       0.1596
    103  C         50.1800   57.6140    3.2770 C.2    69  LYS69       0.2287
    104  O         50.6070   57.2670    4.3860 O.2    69  LYS69      -0.2864
    105  CB        49.2390   55.7420    1.8860 C.3    69  LYS69       0.0298
    106  CG        48.1720   54.6690    1.9220 C.3    69  LYS69       0.0038
    107  CD        46.8330   55.1990    1.4900 C.3    69  LYS69       0.0206
    108  CE        45.7630   54.1380    1.6220 C.3    69  LYS69       0.1093
    109  NZ        44.4540   54.6800    1.1680 N.3    69  LYS69      -0.1314
    110  N         49.2610   59.3780    6.4180 N.3    72  ALA72      -0.1245
    111  CA        48.6650   58.5190    7.4310 C.3    72  ALA72       0.1562
    112  C         49.2920   58.5910    8.8250 C.2    72  ALA72       0.2260
    113  O         48.5790   58.5550    9.8240 O.2    72  ALA72      -0.2867
    114  CB        48.6580   57.0900    6.9310 C.3    72  ALA72       0.0290
    115  N         47.6060   62.1480    9.9920 N.3    75  THR75      -0.1203
    116  CA        46.1520   62.1810    9.9270 C.3    75  THR75       0.1994
    117  C         45.4550   60.9470   10.4780 C.2    75  THR75       0.2617
    118  O         44.3090   61.0170   10.8840 O.2    75  THR75      -0.2717
    119  CB        45.6770   62.3920    8.4800 C.3    75  THR75       0.1784
    120  OG1       45.9910   61.2340    7.6950 O.3    75  THR75      -0.2211
    121  CG2       46.3660   63.5930    7.8850 C.3    75  THR75       0.0376
    122  N         46.1430   59.8190   10.5160 N.am   76  TYR76      -0.1975
    123  CA        45.5200   58.5980   10.9900 C.3    76  TYR76       0.1639
    124  C         46.1250   58.0830   12.2940 C.2    76  TYR76       0.2290
    125  O         45.4250   57.8900   13.2940 O.2    76  TYR76      -0.2864
    126  CB        45.6360   57.5300    9.8960 C.3    76  TYR76       0.0560
    127  CG        45.0950   56.1620   10.2660 C.ar   76  TYR76      -0.0198
    128  CD1       43.7230   55.9430   10.4290 C.ar   76  TYR76      -0.0009
    129  CD2       45.9550   55.0750   10.4240 C.ar   76  TYR76      -0.0009
    130  CE1       43.2190   54.6580   10.7350 C.ar   76  TYR76       0.0417
    131  CE2       45.4630   53.7920   10.7320 C.ar   76  TYR76       0.0417
    132  CZ        44.1000   53.5920   10.8810 C.ar   76  TYR76       0.1957
    133  OH        43.6270   52.3240   11.1420 O.3    76  TYR76      -0.2866
    134  N         46.6640   61.1140   15.0790 N.3    79  HIS79      -0.1226
    135  CA        45.3470   61.5930   15.4500 C.3    79  HIS79       0.1752
    136  C         44.6440   60.5950   16.3640 C.2    79  HIS79       0.2596
    137  O         44.1630   60.9670   17.4320 O.2    79  HIS79      -0.2718
    138  CB        44.4980   61.8380   14.2050 C.3    79  HIS79       0.0759
    139  CG        43.1040   62.2760   14.5160 C.ar   79  HIS79       0.0818
    140  ND1       42.0150   61.4380   14.3930 N.ar   79  HIS79      -0.2268
    141  CD2       42.6230   63.4400   15.0190 C.ar   79  HIS79       0.1154
    142  CE1       40.9290   62.0640   14.8090 C.ar   79  HIS79       0.1986
    143  NE2       41.2710   63.2790   15.1950 N.ar   79  HIS79      -0.2212
    144  N         44.5930   59.3300   15.9470 N.am   80  ASN80      -0.1974
    145  CA        43.9120   58.3050   16.7330 C.3    80  ASN80       0.1688
    146  C         44.5810   58.0630   18.0820 C.2    80  ASN80       0.2292
    147  O         43.9170   57.7870   19.0810 O.2    80  ASN80      -0.2864
    148  CB        43.8070   56.9820   15.9450 C.3    80  ASN80       0.1181
    149  CG        42.7480   57.0320   14.8550 C.2    80  ASN80       0.2629
    150  OD1       41.9290   57.9500   14.8150 O.2    80  ASN80      -0.2716
    151  ND2       42.7520   56.0350   13.9740 N.am   80  ASN80      -0.0877
    152  N         43.2610   60.5860   20.4890 N.3    83  VAL83      -0.1231
    153  CA        41.8920   60.3320   20.8650 C.3    83  VAL83       0.1692
    154  C         41.7280   59.1850   21.8520 C.2    83  VAL83       0.2592
    155  O         40.8730   59.2590   22.7310 O.2    83  VAL83      -0.2718
    156  CB        41.0230   60.0320   19.6250 C.3    83  VAL83       0.0266
    157  CG1       39.6020   59.6800   20.0610 C.3    83  VAL83       0.0020
    158  CG2       41.0240   61.2470   18.6820 C.3    83  VAL83       0.0020
    159  N         42.5390   58.1360   21.7230 N.am   84  GLY84      -0.1957
    160  CA        42.3820   56.9920   22.6090 C.3    84  GLY84       0.1869
    161  C         43.3290   56.8800   23.7850 C.2    84  GLY84       0.2309
    162  O         43.1810   55.9930   24.6330 O.2    84  GLY84      -0.2863
    163  N         42.2530   56.3460   27.7020 N.3    87  PHE87      -0.1227
    164  CA        41.7250   55.0740   28.1510 C.3    87  PHE87       0.1736
    165  C         42.4670   53.8250   27.6720 C.2    87  PHE87       0.2596
    166  O         42.0560   52.7050   27.9700 O.2    87  PHE87      -0.2718
    167  CB        40.2260   54.9990   27.8260 C.3    87  PHE87       0.0547
    168  CG        39.8980   54.9580   26.3610 C.ar   87  PHE87      -0.0202
    169  CD1       39.8170   53.7450   25.6840 C.ar   87  PHE87      -0.0042
    170  CD2       39.5900   56.1220   25.6760 C.ar   87  PHE87      -0.0042
    171  CE1       39.4210   53.7030   24.3470 C.ar   87  PHE87      -0.0003
    172  CE2       39.2000   56.0870   24.3520 C.ar   87  PHE87      -0.0003
    173  CZ        39.1120   54.8790   23.6860 C.ar   87  PHE87      -0.0000
    174  N         43.5620   54.0130   26.9420 N.am   88  THR88      -0.1953
    175  CA        44.3500   52.8770   26.4790 C.3    88  THR88       0.1897
    176  C         45.7570   52.9830   27.0720 C.2    88  THR88       0.2313
    177  O         46.1110   52.2660   28.0190 O.2    88  THR88      -0.2863
    178  CB        44.4360   52.8330   24.9250 C.3    88  THR88       0.1794
    179  OG1       45.0160   54.0490   24.4390 O.3    88  THR88      -0.2208
    180  CG2       43.0550   52.6850   24.3160 C.3    88  THR88       0.0378
@<TRIPOS>BOND
     1    75    76    1
     2    80    81    1
     3    80    79    1
     4    83    81   am
     5    76    79    1
     6    76    77    1
     7    81    82    2
     8    61    62    1
     9    77    78    2
    10    62    63    1
    11    62    65    1
    12    63    64    2
    13    67    69   ar
    14    67    66   ar
    15    69    70   ar
    16    65    66    1
    17    66    68   ar
    18    70    68   ar
    19    70    72   ar
    20    91    89    1
    21    68    71   ar
    22    89    90    1
    23    89    88    1
    24    84    85    1
    25    52    51    2
    26    72    74   ar
    27    71    73   ar
    28    88    85    1
    29    53    50    1
    30    53    54    1
    31    51    50    1
    32    85    86    1
    33    74    73   ar
    34    49    50    1
    35    55    54   ar
    36    55    57   ar
    37    86    87    2
    38    54    56   ar
    39    57    59   ar
    40   100    98   am
    41    56    58   ar
    42    59    58   ar
    43    59    60    1
    44    98    97    1
    45    98    99    2
    46    92    93    1
    47    97    96    1
    48    96    93    1
    49    44    46   ar
    50    44    42   ar
    51   109   108    1
    52    41    42    1
    53    41    38    1
    54    46    47   ar
    55    42    43   ar
    56    93    94    1
    57   107   108    1
    58   107   106    1
    59    47    48    1
    60    47    45   ar
    61    43    45   ar
    62   105   106    1
    63   105   102    1
    64   101    94   am
    65   101   102    1
    66    40    39    2
    67    94    95    2
    68    39    38    1
    69    38    37    1
    70    36    34   ar
    71   102   103    1
    72   103   104    2
    73    32    31    2
    74    34    33    1
    75    34    35   ar
    76     7     5    1
    77    33    30    1
    78    31    30    1
    79     6     5    1
    80    30    29    1
    81     5     2    1
    82    17    15   ar
    83    17    16   ar
    84     2     1    1
    85     2     3    1
    86    27    28   ar
    87    27    25   ar
    88    15    13   ar
    89   110   111    1
    90    28    26   ar
    91    25    23   ar
    92    16    14   ar
    93   114   111    1
    94     3     4    2
    95   111   112    1
    96    21    20    2
    97    13    14   ar
    98    13    12    1
    99   120   119    1
   100   121   119    1
   101    26    24   ar
   102    23    24   ar
   103    23    22    1
   104    20    19    1
   105   119   116    1
   106    12     9    1
   107    22    19    1
   108   112   113    2
   109     9     8    1
   110     9    10    1
   111    19    18    1
   112   126   127    1
   113   126   123    1
   114   116   115    1
   115   116   117    1
   116   127   129   ar
   117   127   128   ar
   118    10    11    2
   119   129   131   ar
   120   128   130   ar
   121   117   122   am
   122   117   118    2
   123   122   123    1
   124   131   132   ar
   125   130   132   ar
   126   132   133    1
   127   123   124    1
   128   124   125    2
   129   151   149   am
   130   138   139    1
   131   138   135    1
   132   140   139   ar
   133   140   142   ar
   134   139   141   ar
   135   142   143   ar
   136   150   149    2
   137   149   148    1
   138   141   143   ar
   139   134   135    1
   140   135   136    1
   141   148   145    1
   142   144   136   am
   143   144   145    1
   144   136   137    2
   145   145   146    1
   146   146   147    2
   147   158   156    1
   148   156   157    1
   149   156   153    1
   150   152   153    1
   151   153   154    1
   152   159   154   am
   153   159   160    1
   154   154   155    2
   155   160   161    1
   156   173   171   ar
   157   173   172   ar
   158   161   162    2
   159   180   178    1
   160   171   169   ar
   161   172   170   ar
   162   179   178    1
   163   178   175    1
   164   170   168   ar
   165   169   168   ar
   166   168   167    1
   167   175   174    1
   168   175   176    1
   169   174   165   am
   170   176   177    2
   171   165   166    2
   172   165   164    1
   173   163   164    1
   174   167   164    1
