@<TRIPOS>MOLECULE
tmp/1d6fA00.pdb
 160 153 0 0 0
SMALL
GASTEIGER

@<TRIPOS>ATOM
      1  N          6.5330   49.3600   42.1110 N.3    59  MET59      -0.1245
      2  CA         7.6620   49.9360   42.8490 C.3    59  MET59       0.1570
      3  C          8.9210   50.0080   41.9860 C.2    59  MET59       0.2261
      4  O          9.6000   51.0520   41.9620 O.2    59  MET59      -0.2867
      5  CB         7.9940   49.1270   44.1050 C.3    59  MET59       0.0387
      6  CG         6.9100   49.2260   45.1620 C.3    59  MET59       0.0595
      7  SD         7.2630   48.0500   46.4970 S.3    59  MET59      -0.1393
      8  CE         5.8200   48.3470   47.5250 C.3    59  MET59       0.0692
      9  N         10.9200   53.3320   40.5470 N.3    63  SER63      -0.1217
     10  CA        12.1630   53.5070   41.2790 C.3    63  SER63       0.1889
     11  C         13.1370   54.5020   40.7030 C.2    63  SER63       0.2288
     12  O         14.0390   55.0370   41.3750 O.2    63  SER63      -0.2866
     13  CB        12.8700   52.1440   41.4530 C.3    63  SER63       0.2089
     14  OG        13.3670   51.6540   40.2160 O.3    63  SER63      -0.2183
     15  N         21.7350   55.1040   56.3410 N.3   164  ALA164     -0.1245
     16  CA        21.9830   55.7860   55.0870 C.3   164  ALA164      0.1562
     17  C         22.4310   57.2220   55.1860 C.2   164  ALA164      0.2260
     18  O         22.8470   57.7160   54.1300 O.2   164  ALA164     -0.2867
     19  CB        20.7550   55.7060   54.1800 C.3   164  ALA164      0.0290
     20  N          9.5330   47.7310   49.6910 N.3   210  VAL210     -0.1245
     21  CA        10.0800   48.9270   49.0330 C.3   210  VAL210      0.1561
     22  C         11.5990   48.8600   48.9780 C.2   210  VAL210      0.2260
     23  O         12.2320   49.1100   47.9400 O.2   210  VAL210     -0.2867
     24  CB         9.5960   50.1540   49.8410 C.3   210  VAL210      0.0252
     25  CG1       10.5180   51.3430   49.6820 C.3   210  VAL210      0.0019
     26  CG2        8.1710   50.4870   49.4200 C.3   210  VAL210      0.0019
     27  N         14.8900   49.0740   45.8970 N.3   214  LEU214     -0.1231
     28  CA        15.8450   50.1660   45.8530 C.3   214  LEU214      0.1693
     29  C         17.2760   49.8760   46.2620 C.2   214  LEU214      0.2592
     30  O         18.2020   50.5150   45.7430 O.2   214  LEU214     -0.2718
     31  CB        15.3590   51.2680   46.8230 C.3   214  LEU214      0.0284
     32  CG        13.9270   51.7490   46.5440 C.3   214  LEU214      0.0019
     33  CD1       13.5150   52.6460   47.7020 C.3   214  LEU214      0.0001
     34  CD2       13.8480   52.4970   45.2170 C.3   214  LEU214      0.0001
     35  N         17.5040   49.0030   47.2390 N.am  215  PHE215     -0.1976
     36  CA        18.8590   48.8630   47.7780 C.3   215  PHE215      0.1639
     37  C         19.8170   48.0950   46.8710 C.2   215  PHE215      0.2290
     38  O         19.5560   46.9940   46.3910 O.2   215  PHE215     -0.2864
     39  CB        18.7710   48.1490   49.1330 C.3   215  PHE215      0.0560
     40  CG        17.9140   48.7750   50.2020 C.ar  215  PHE215     -0.0200
     41  CD1       17.7180   50.1190   50.2740 C.ar  215  PHE215     -0.0042
     42  CD2       17.3300   47.9460   51.1740 C.ar  215  PHE215     -0.0042
     43  CE1       16.9430   50.7120   51.2700 C.ar  215  PHE215     -0.0003
     44  CE2       16.5640   48.5290   52.1760 C.ar  215  PHE215     -0.0003
     45  CZ        16.3760   49.8890   52.2300 C.ar  215  PHE215     -0.0000
     46  N         12.1780   55.7280   59.9190 N.3   254  ILE254     -0.1245
     47  CA        12.9960   54.6540   59.3470 C.3   254  ILE254      0.1561
     48  C         13.6440   53.8810   60.4950 C.2   254  ILE254      0.2260
     49  O         14.5780   54.4420   61.0760 O.2   254  ILE254     -0.2867
     50  CB        14.0930   55.1900   58.4210 C.3   254  ILE254      0.0252
     51  CG1       13.6260   56.1040   57.2990 C.3   254  ILE254      0.0019
     52  CG2       14.8870   53.9910   57.8530 C.3   254  ILE254      0.0019
     53  CD1       14.7400   56.8740   56.6110 C.3   254  ILE254      0.0001
     54  N         13.9830   46.4880   57.8530 N.3   265  PHE265     -0.1241
     55  CA        13.6130   47.8950   57.9190 C.3   265  PHE265      0.1605
     56  C         12.1030   48.0480   58.0410 C.2   265  PHE265      0.2264
     57  O         11.2870   47.2180   57.6500 O.2   265  PHE265     -0.2867
     58  CB        14.0320   48.6640   56.6610 C.3   265  PHE265      0.0534
     59  CG        15.4910   49.0290   56.6720 C.ar  265  PHE265     -0.0203
     60  CD1       16.3910   48.3220   55.8830 C.ar  265  PHE265     -0.0042
     61  CD2       15.9460   50.0500   57.4860 C.ar  265  PHE265     -0.0042
     62  CE1       17.7360   48.6630   55.8910 C.ar  265  PHE265     -0.0003
     63  CE2       17.2900   50.3880   57.4940 C.ar  265  PHE265     -0.0003
     64  CZ        18.1760   49.6850   56.6980 C.ar  265  PHE265     -0.0000
     65  N          8.9590   51.3070   58.2790 N.3   267  LEU267     -0.1245
     66  CA         8.7620   52.6080   57.6600 C.3   267  LEU267      0.1561
     67  C          7.4270   53.0550   58.2910 C.2   267  LEU267      0.2260
     68  O          6.4400   52.3230   58.1320 O.2   267  LEU267     -0.2867
     69  CB         8.6910   52.7150   56.1580 C.3   267  LEU267      0.0270
     70  CG         9.9410   52.4630   55.3250 C.3   267  LEU267      0.0019
     71  CD1        9.6560   52.6420   53.8150 C.3   267  LEU267      0.0001
     72  CD2       11.0820   53.4180   55.6410 C.3   267  LEU267      0.0001
     73  N          8.5710   59.6130   54.5740 N.3   271  VAL271     -0.1231
     74  CA         9.9510   60.0980   54.4900 C.3   271  VAL271      0.1678
     75  C         10.1610   61.2360   53.5140 C.2   271  VAL271      0.2434
     76  O         10.7290   62.2690   53.8690 O.2   271  VAL271     -0.2733
     77  CB        10.9250   58.9240   54.2660 C.3   271  VAL271      0.0265
     78  CG1       12.3110   59.4010   53.8700 C.3   271  VAL271      0.0020
     79  CG2       10.9730   58.0460   55.5270 C.3   271  VAL271      0.0020
     80  N          9.6960   61.1580   52.2670 N.am  272  PRO272     -0.2729
     81  CA         9.7860   62.2690   51.3370 C.3   272  PRO272      0.1401
     82  C          9.1580   63.5360   51.8880 C.2   272  PRO272      0.2269
     83  O          9.6980   64.6290   51.7770 O.2   272  PRO272     -0.2865
     84  CB         9.0640   61.7520   50.0920 C.3   272  PRO272      0.0296
     85  CG         9.2010   60.2630   50.1710 C.3   272  PRO272      0.0237
     86  CD         9.1350   59.9290   51.6550 C.3   272  PRO272      0.0939
     87  N         21.2900   62.3990   49.2850 N.3   303  HIS303     -0.1241
     88  CA        21.1470   60.9450   49.3330 C.3   303  HIS303      0.1621
     89  C         19.8510   60.5280   48.6480 C.2   303  HIS303      0.2264
     90  O         18.7830   60.9350   49.1070 O.2   303  HIS303     -0.2867
     91  CB        21.1430   60.5270   50.8220 C.3   303  HIS303      0.0745
     92  CG        20.8830   59.0570   50.9010 C.ar  303  HIS303      0.0817
     93  ND1       21.7360   58.1300   50.3660 N.ar  303  HIS303     -0.2268
     94  CD2       19.8090   58.3870   51.3890 C.ar  303  HIS303      0.1154
     95  CE1       21.2050   56.9140   50.5300 C.ar  303  HIS303      0.1986
     96  NE2       20.0510   57.0550   51.1680 N.ar  303  HIS303     -0.2212
     97  N         17.4990   58.3490   48.6860 N.3   305  GLY305     -0.1210
     98  CA        16.8580   57.2560   49.4230 C.3   305  GLY305      0.1956
     99  C         15.7960   56.5530   48.5770 C.2   305  GLY305      0.2612
    100  O         15.6410   55.3360   48.5670 O.2   305  GLY305     -0.2717
    101  N         15.0620   57.3860   47.8440 N.am  306  GLY306     -0.1942
    102  CA        14.1730   56.9530   46.7620 C.3   306  GLY306      0.1998
    103  C         13.9550   58.1880   45.8950 C.2   306  GLY306      0.2481
    104  O         14.2160   59.3240   46.2870 O.2   306  GLY306     -0.2729
    105  N         13.3910   57.9960   44.6980 N.am  307  PRO307     -0.2715
    106  CA        13.1260   59.1230   43.8120 C.3   307  PRO307      0.1536
    107  C         12.1280   60.1180   44.3580 C.2   307  PRO307      0.2598
    108  O         12.2330   61.3180   44.0680 O.2   307  PRO307     -0.2715
    109  CB        12.6220   58.4180   42.5520 C.3   307  PRO307      0.0310
    110  CG        12.0380   57.1480   43.0420 C.3   307  PRO307      0.0237
    111  CD        12.9590   56.6840   44.1590 C.3   307  PRO307      0.0939
    112  N         11.1620   59.7010   45.1640 N.am  308  ALA308     -0.1964
    113  CA        10.1760   60.6510   45.7080 C.3   308  ALA308      0.1728
    114  C         10.8200   61.6810   46.6330 C.2   308  ALA308      0.2616
    115  O         10.3350   62.8160   46.7110 O.2   308  ALA308     -0.2715
    116  CB         9.1220   59.8750   46.4920 C.3   308  ALA308      0.0334
    117  N         11.8660   61.3050   47.3830 N.am  309  ILE309     -0.1977
    118  CA        12.5780   62.2740   48.2010 C.3   309  ILE309      0.1596
    119  C         13.1010   63.4060   47.3060 C.2   309  ILE309      0.2287
    120  O         12.9340   64.5860   47.5510 O.2   309  ILE309     -0.2864
    121  CB        13.7790   61.6730   48.9590 C.3   309  ILE309      0.0276
    122  CG1       13.2460   60.6650   49.9950 C.3   309  ILE309      0.0022
    123  CG2       14.5570   62.7930   49.6450 C.3   309  ILE309      0.0022
    124  CD1       14.3600   59.9010   50.7110 C.3   309  ILE309      0.0001
    125  N         20.1650   52.6270   45.5180 N.3   336  ASN336     -0.1240
    126  CA        20.4280   53.2240   46.8360 C.3   336  ASN336      0.1653
    127  C         21.4420   52.3180   47.5460 C.2   336  ASN336      0.2266
    128  O         21.1160   51.2480   48.0790 O.2   336  ASN336     -0.2867
    129  CB        19.0870   53.3100   47.5740 C.3   336  ASN336      0.1155
    130  CG        19.1880   53.7310   49.0230 C.2   336  ASN336      0.2627
    131  OD1       20.2780   53.8440   49.5730 O.2   336  ASN336     -0.2716
    132  ND2       18.0290   53.9570   49.6320 N.am  336  ASN336     -0.0877
    133  N         22.9920   53.0300   50.3530 N.3   338  SER338     -0.1217
    134  CA        23.1170   53.4940   51.7360 C.3   338  SER338      0.1889
    135  C         24.2130   54.5420   51.8630 C.2   338  SER338      0.2288
    136  O         24.2480   55.4730   51.0370 O.2   338  SER338     -0.2866
    137  CB        23.3490   52.2810   52.6510 C.3   338  SER338      0.2089
    138  OG        23.2920   52.7020   54.0310 O.3   338  SER338     -0.2183
    139  N         20.4280   61.3430   54.4670 N.3   373  PHE373     -0.1227
    140  CA        19.1560   61.1480   55.1490 C.3   373  PHE373      0.1736
    141  C         19.0740   59.6970   55.6270 C.2   373  PHE373      0.2596
    142  O         19.5640   58.8120   54.9070 O.2   373  PHE373     -0.2718
    143  CB        17.9380   61.3540   54.2120 C.3   373  PHE373      0.0547
    144  CG        17.9930   62.6090   53.3930 C.ar  373  PHE373     -0.0202
    145  CD1       17.9540   62.5050   51.9980 C.ar  373  PHE373     -0.0042
    146  CD2       18.0670   63.8610   53.9730 C.ar  373  PHE373     -0.0042
    147  CE1       18.0130   63.6510   51.2300 C.ar  373  PHE373     -0.0003
    148  CE2       18.1390   65.0020   53.1980 C.ar  373  PHE373     -0.0003
    149  CZ        18.0880   64.9080   51.8190 C.ar  373  PHE373     -0.0000
    150  N         18.4660   59.4570   56.7770 N.am  374  GLY374     -0.1943
    151  CA        18.4140   58.0750   57.2740 C.3   374  GLY374      0.1998
    152  C         17.6730   58.0070   58.6060 C.2   374  GLY374      0.2480
    153  O         17.0010   58.9700   58.9710 O.2   374  GLY374     -0.2729
    154  N         17.8040   56.8840   59.2890 N.am  375  PRO375     -0.2726
    155  CA        17.1060   56.6640   60.5440 C.3   375  PRO375      0.1402
    156  C         17.2300   57.8160   61.5270 C.2   375  PRO375      0.2269
    157  O         18.3010   58.3400   61.7960 O.2   375  PRO375     -0.2865
    158  CB        17.7840   55.4140   61.1370 C.3   375  PRO375      0.0296
    159  CG        18.2130   54.6560   59.9160 C.3   375  PRO375      0.0237
    160  CD        18.6160   55.7010   58.8880 C.3   375  PRO375      0.0939
@<TRIPOS>BOND
     1    14    13    1
     2     9    10    1
     3    11    10    1
     4    11    12    2
     5    10    13    1
     6     4     3    2
     7     3     2    1
     8     1     2    1
     9   109   110    1
    10   109   106    1
    11     2     5    1
    12   110   111    1
    13   106   107    1
    14   106   105    1
    15   108   107    2
    16     5     6    1
    17   111   105    1
    18   107   112   am
    19   105   103   am
    20     6     7    1
    21   112   113    1
    22    34    32    1
    23   125   126    1
    24   113   116    1
    25   113   114    1
    26    30    29    2
    27    28    27    1
    28    28    29    1
    29    28    31    1
    30   103   104    2
    31   103   102    1
    32    29    35   am
    33    38    37    2
    34     7     8    1
    35    32    31    1
    36    32    33    1
    37   114   115    2
    38   114   117   am
    39   102   101    1
    40   126   127    1
    41   126   129    1
    42    37    36    1
    43    35    36    1
    44   119   120    2
    45   119   118    1
    46   117   118    1
    47   127   128    2
    48   129   130    1
    49    36    39    1
    50   101    99   am
    51    23    22    2
    52   118   121    1
    53   100    99    2
    54    99    98    1
    55    89    90    2
    56    89    88    1
    57    97    98    1
    58   121   123    1
    59   121   122    1
    60    22    21    1
    61   130   131    2
    62   130   132   am
    63    21    20    1
    64    21    24    1
    65    39    40    1
    66    87    88    1
    67    88    91    1
    68    26    24    1
    69    25    24    1
    70   122   124    1
    71    84    85    1
    72    84    81    1
    73    85    86    1
    74    40    41   ar
    75    40    42   ar
    76    41    43   ar
    77   133   134    1
    78    93    95   ar
    79    93    92   ar
    80    95    96   ar
    81    91    92    1
    82    92    94   ar
    83   136   135    2
    84    96    94   ar
    85    42    44   ar
    86   147   149   ar
    87   147   145   ar
    88    43    45   ar
    89    81    82    1
    90    81    80    1
    91    86    80    1
    92   134   135    1
    93   134   137    1
    94    83    82    2
    95   149   148   ar
    96   145   144   ar
    97    44    45   ar
    98    80    75   am
    99   137   138    1
   100   148   146   ar
   101   144   146   ar
   102   144   143    1
   103    75    76    2
   104    75    74    1
   105    71    70    1
   106    78    77    1
   107    18    17    2
   108    19    16    1
   109   143   140    1
   110    77    74    1
   111    77    79    1
   112   139   140    1
   113    74    73    1
   114   142   141    2
   115    16    17    1
   116    16    15    1
   117   140   141    1
   118    70    72    1
   119    70    69    1
   120   141   150   am
   121    60    62   ar
   122    60    59   ar
   123    62    64   ar
   124    69    66    1
   125    53    51    1
   126    58    59    1
   127    58    55    1
   128    59    61   ar
   129    64    63   ar
   130   150   151    1
   131   151   152    1
   132    51    50    1
   133    61    63   ar
   134    57    56    2
   135    66    65    1
   136    66    67    1
   137    52    50    1
   138    54    55    1
   139    55    56    1
   140    68    67    2
   141    50    47    1
   142   152   153    2
   143   152   154   am
   144   160   154    1
   145   160   159    1
   146   154   155    1
   147    47    46    1
   148    47    48    1
   149   159   158    1
   150    48    49    2
   151   155   158    1
   152   155   156    1
   153   156   157    2
