@<TRIPOS>MOLECULE
tmp/1d6hA00.pdb
 180 171 0 0 0
SMALL
GASTEIGER

@<TRIPOS>ATOM
      1  N          2.4130   44.7560   42.3910 N.3    53  LYS53      -0.1245
      2  CA         2.7950   45.8580   43.2580 C.3    53  LYS53       0.1561
      3  C          4.3060   46.0630   43.1330 C.2    53  LYS53       0.2260
      4  O          4.6590   47.2060   42.9270 O.2    53  LYS53      -0.2867
      5  CB         2.4070   45.6500   44.6960 C.3    53  LYS53       0.0271
      6  CG         2.3890   46.8870   45.6040 C.3    53  LYS53       0.0035
      7  CD         1.4080   46.5440   46.7310 C.3    53  LYS53       0.0206
      8  CE         0.6640   47.6330   47.4520 C.3    53  LYS53       0.1093
      9  NZ        -0.2810   48.4110   46.6230 N.3    53  LYS53      -0.1314
     10  N          5.4550   47.6400   39.8000 N.3    56  ARG56      -0.1231
     11  CA         5.2230   49.0730   39.7800 C.3    56  ARG56       0.1694
     12  C          6.3060   49.8070   40.5890 C.2    56  ARG56       0.2588
     13  O          6.8880   50.8170   40.1460 O.2    56  ARG56      -0.2718
     14  CB         3.8260   49.3130   40.3830 C.3    56  ARG56       0.0321
     15  CG         2.7550   49.1960   39.2860 C.3    56  ARG56       0.0489
     16  CD         1.3500   49.4030   39.8240 C.3    56  ARG56       0.2205
     17  NE         0.8910   48.6980   40.9880 N.pl3  56  ARG56      -0.0865
     18  CZ         0.1090   47.6060   41.0640 C.cat  56  ARG56       0.5346
     19  NH1       -0.0610   46.8940   39.9590 N.pl3  56  ARG56       0.1354
     20  NH2       -0.3220   47.0930   42.2110 N.pl3  56  ARG56       0.1354
     21  N          6.6340   49.3980   41.7830 N.am   57  MET57      -0.2033
     22  CA         7.7710   49.9450   42.5140 C.3    57  MET57       0.1291
     23  C          9.0830   49.9180   41.6820 C.3    57  MET57       0.2036
     24  O          9.7220   50.9710   41.7700 O.3    57  MET57      -0.2185
     25  CB         8.0280   49.1820   43.8190 C.3    57  MET57       0.0360
     26  CG         6.9700   49.3630   44.8900 C.3    57  MET57       0.0594
     27  SD         7.2960   48.1850   46.2490 S.3    57  MET57      -0.1393
     28  CE         6.0650   48.6440   47.4380 C.3    57  MET57       0.0692
     29  N          8.8680   52.3610   38.8740 N.3    60  LYS60      -0.1231
     30  CA         8.8760   53.7570   39.3420 C.3    60  LYS60       0.1693
     31  C         10.1650   54.2200   39.9840 C.2    60  LYS60       0.2592
     32  O         10.4730   55.4090   40.0710 O.2    60  LYS60      -0.2718
     33  CB         7.7920   53.9370   40.4310 C.3    60  LYS60       0.0285
     34  CG         6.5170   54.4510   39.8300 C.3    60  LYS60       0.0035
     35  CD         5.5860   53.3240   39.4710 C.3    60  LYS60       0.0206
     36  CE         4.8120   52.8910   40.7070 C.3    60  LYS60       0.1093
     37  NZ         3.5460   52.1620   40.3900 N.3    60  LYS60      -0.1314
     38  N         11.0160   53.2760   40.2740 N.am   61  SER61      -0.1952
     39  CA        12.2380   53.4380   41.0440 C.3    61  SER61       0.1924
     40  C         13.2340   54.3310   40.3600 C.2    61  SER61       0.2314
     41  O         14.0330   54.9640   41.0730 O.2    61  SER61      -0.2863
     42  CB        12.7920   52.0420   41.3910 C.3    61  SER61       0.2116
     43  OG        13.5260   51.4570   40.3420 O.3    61  SER61      -0.2180
     44  N          4.9990   45.8090   53.0640 N.3   203  LEU203     -0.1231
     45  CA         5.3020   46.5100   51.8400 C.3   203  LEU203      0.1693
     46  C          6.4820   47.4590   51.9410 C.2   203  LEU203      0.2592
     47  O          7.2600   47.6230   50.9940 O.2   203  LEU203     -0.2718
     48  CB         4.0360   47.2900   51.4580 C.3   203  LEU203      0.0284
     49  CG         2.7740   46.4810   51.1490 C.3   203  LEU203      0.0019
     50  CD1        1.6310   47.4420   50.7730 C.3   203  LEU203      0.0001
     51  CD2        3.0150   45.4460   50.0390 C.3   203  LEU203      0.0001
     52  N          6.6380   48.0560   53.1250 N.am  204  ASP204     -0.1974
     53  CA         7.8150   48.8480   53.4730 C.3   204  ASP204      0.1709
     54  C          9.0670   47.9960   53.2880 C.2   204  ASP204      0.2293
     55  O          9.9890   48.4310   52.6130 O.2   204  ASP204     -0.2864
     56  CB         7.7900   49.4590   54.8480 C.3   204  ASP204      0.1436
     57  CG         7.4990   48.5630   56.0070 C.2   204  ASP204      0.3671
     58  OD1        7.1990   47.3360   55.7980 O.co2 204  ASP204     -0.2456
     59  OD2        7.6650   49.1730   57.0980 O.co2 204  ASP204     -0.2456
     60  N          9.6530   47.7270   49.5360 N.3   207  VAL207     -0.1231
     61  CA        10.3310   48.8970   48.9420 C.3   207  VAL207      0.1692
     62  C         11.8490   48.8050   49.0310 C.2   207  VAL207      0.2592
     63  O         12.5310   49.0890   48.0530 O.2   207  VAL207     -0.2718
     64  CB         9.8760   50.2150   49.5790 C.3   207  VAL207      0.0266
     65  CG1       10.8760   51.3520   49.3390 C.3   207  VAL207      0.0020
     66  CG2        8.5150   50.6590   49.0750 C.3   207  VAL207      0.0020
     67  N         12.3740   48.4280   50.2140 N.am  208  GLY208     -0.1957
     68  CA        13.8280   48.2060   50.3530 C.3   208  GLY208      0.1869
     69  C         14.3930   47.2440   49.3570 C.2   208  GLY208      0.2309
     70  O         15.4220   47.5390   48.7230 O.2   208  GLY208     -0.2863
     71  N         13.2540   46.7870   46.2810 N.3   210  ALA210     -0.1231
     72  CA        13.3620   47.4060   44.9450 C.3   210  ALA210      0.1694
     73  C         14.5730   48.3630   44.9040 C.2   210  ALA210      0.2592
     74  O         15.1190   48.6700   43.8490 O.2   210  ALA210     -0.2718
     75  CB        12.1270   48.1630   44.5100 C.3   210  ALA210      0.0304
     76  N         14.9000   49.0340   46.0300 N.am  211  LEU211     -0.1966
     77  CA        15.8520   50.1340   45.9490 C.3   211  LEU211      0.1728
     78  C         17.3070   49.9370   46.2950 C.2   211  LEU211      0.2616
     79  O         18.1990   50.5900   45.7040 O.2   211  LEU211     -0.2715
     80  CB        15.3370   51.2290   46.8840 C.3   211  LEU211      0.0311
     81  CG        13.9800   51.8280   46.5710 C.3   211  LEU211      0.0022
     82  CD1       13.5240   52.8230   47.6590 C.3   211  LEU211      0.0001
     83  CD2       14.0550   52.4760   45.1940 C.3   211  LEU211      0.0001
     84  N         17.5960   49.0400   47.2410 N.am  212  PHE212     -0.1974
     85  CA        18.9500   48.9010   47.7220 C.3   212  PHE212      0.1639
     86  C         19.8600   48.0890   46.8260 C.2   212  PHE212      0.2290
     87  O         19.5210   47.0080   46.3360 O.2   212  PHE212     -0.2864
     88  CB        18.9830   48.2870   49.1410 C.3   212  PHE212      0.0560
     89  CG        18.2330   49.0000   50.2100 C.ar  212  PHE212     -0.0200
     90  CD1       17.8740   50.3400   50.1120 C.ar  212  PHE212     -0.0042
     91  CD2       17.9020   48.3530   51.3780 C.ar  212  PHE212     -0.0042
     92  CE1       17.1800   51.0010   51.1030 C.ar  212  PHE212     -0.0003
     93  CE2       17.2060   49.0060   52.4050 C.ar  212  PHE212     -0.0003
     94  CZ        16.8620   50.3230   52.2620 C.ar  212  PHE212     -0.0000
     95  N         12.3480   55.5650   59.5730 N.3   251  ILE251     -0.1245
     96  CA        13.2300   54.5950   58.9590 C.3   251  ILE251      0.1561
     97  C         13.9060   53.8200   60.0820 C.2   251  ILE251      0.2260
     98  O         14.6540   54.4390   60.8320 O.2   251  ILE251     -0.2867
     99  CB        14.3000   55.2430   58.0510 C.3   251  ILE251      0.0252
    100  CG1       13.7320   56.0190   56.8980 C.3   251  ILE251      0.0019
    101  CG2       15.1300   54.0790   57.5070 C.3   251  ILE251      0.0019
    102  CD1       14.6080   56.9210   56.0900 C.3   251  ILE251      0.0001
    103  N         14.1330   46.3570   57.6740 N.3   262  PHE262     -0.1241
    104  CA        13.8470   47.7850   57.6000 C.3   262  PHE262      0.1605
    105  C         12.3480   47.9850   57.6210 C.2   262  PHE262      0.2264
    106  O         11.6490   47.1210   57.1210 O.2   262  PHE262     -0.2867
    107  CB        14.4000   48.4030   56.3100 C.3   262  PHE262      0.0534
    108  CG        15.8550   48.7800   56.3200 C.ar  262  PHE262     -0.0203
    109  CD1       16.8300   47.8360   56.0160 C.ar  262  PHE262     -0.0042
    110  CD2       16.2460   50.0790   56.6190 C.ar  262  PHE262     -0.0042
    111  CE1       18.1690   48.2070   56.0140 C.ar  262  PHE262     -0.0003
    112  CE2       17.5790   50.4450   56.6130 C.ar  262  PHE262     -0.0003
    113  CZ        18.5480   49.4920   56.3110 C.ar  262  PHE262     -0.0000
    114  N          9.2320   51.2130   57.4660 N.3   264  LEU264     -0.1245
    115  CA         8.9920   52.6280   57.1800 C.3   264  LEU264      0.1561
    116  C          7.6570   53.0120   57.8340 C.2   264  LEU264      0.2260
    117  O          6.5800   52.5110   57.4310 O.2   264  LEU264     -0.2867
    118  CB         9.0360   52.9170   55.7100 C.3   264  LEU264      0.0270
    119  CG        10.3020   52.5590   54.9320 C.3   264  LEU264      0.0019
    120  CD1       10.0260   52.7170   53.4520 C.3   264  LEU264      0.0001
    121  CD2       11.4820   53.4570   55.3110 C.3   264  LEU264      0.0001
    122  N          6.4430   56.3230   58.6910 N.3   266  LYS266     -0.1245
    123  CA         5.9580   57.6770   58.5130 C.3   266  LYS266      0.1561
    124  C          6.0320   58.0270   57.0240 C.2   266  LYS266      0.2260
    125  O          5.9610   57.1110   56.1600 O.2   266  LYS266     -0.2867
    126  CB         6.7780   58.6290   59.3660 C.3   266  LYS266      0.0271
    127  CG         6.6130   58.5220   60.8780 C.3   266  LYS266      0.0035
    128  CD         5.4530   59.3520   61.3840 C.3   266  LYS266      0.0206
    129  CE         5.5350   59.7760   62.8260 C.3   266  LYS266      0.1093
    130  NZ         5.8390   58.6590   63.7570 N.3   266  LYS266     -0.1314
    131  N          8.6120   59.4130   54.6800 N.3   268  VAL268     -0.1231
    132  CA        10.0070   59.8320   54.5050 C.3   268  VAL268      0.1678
    133  C         10.1670   60.9570   53.4900 C.2   268  VAL268      0.2434
    134  O         10.7010   62.0380   53.7840 O.2   268  VAL268     -0.2733
    135  CB        10.8460   58.5690   54.2040 C.3   268  VAL268      0.0265
    136  CG1       12.2000   58.8930   53.5700 C.3   268  VAL268      0.0020
    137  CG2       10.9930   57.7350   55.4750 C.3   268  VAL268      0.0020
    138  N          9.6370   60.7820   52.2750 N.am  269  PRO269     -0.2729
    139  CA         9.6810   61.8460   51.2650 C.3   269  PRO269      0.1401
    140  C          9.0660   63.1380   51.7500 C.2   269  PRO269      0.2269
    141  O          9.7690   64.1500   51.6720 O.2   269  PRO269     -0.2865
    142  CB         9.0930   61.2680   49.9970 C.3   269  PRO269      0.0296
    143  CG         9.4760   59.7990   50.1600 C.3   269  PRO269      0.0237
    144  CD         9.2570   59.4950   51.6510 C.3   269  PRO269      0.0939
    145  N         17.3980   58.1710   48.4930 N.3   302  GLY302     -0.1210
    146  CA        16.8030   57.0740   49.2290 C.3   302  GLY302      0.1956
    147  C         15.6350   56.4320   48.4860 C.2   302  GLY302      0.2612
    148  O         15.4680   55.1950   48.5610 O.2   302  GLY302     -0.2717
    149  N         15.0740   57.0470   47.5000 N.am  303  GLY303     -0.1942
    150  CA        14.5060   56.5260   46.2710 C.3   303  GLY303      0.1998
    151  C         14.2290   57.8240   45.5020 C.2   303  GLY303      0.2481
    152  O         14.6720   58.8130   46.0400 O.2   303  GLY303     -0.2729
    153  N         13.5660   57.7940   44.3610 N.am  304  PRO304     -0.2715
    154  CA        13.2480   58.9940   43.6170 C.3   304  PRO304      0.1536
    155  C         12.2470   59.9760   44.2130 C.2   304  PRO304      0.2598
    156  O         12.2180   61.2010   43.9000 O.2   304  PRO304     -0.2715
    157  CB        12.7370   58.4560   42.2670 C.3   304  PRO304      0.0310
    158  CG        12.2990   57.0510   42.5380 C.3   304  PRO304      0.0237
    159  CD        13.0780   56.5540   43.7310 C.3   304  PRO304      0.0939
    160  N         11.2890   59.5070   45.0050 N.am  305  ALA305     -0.1964
    161  CA        10.2720   60.3940   45.5780 C.3   305  ALA305      0.1728
    162  C         10.9140   61.4030   46.5030 C.2   305  ALA305      0.2616
    163  O         10.5520   62.5750   46.4780 O.2   305  ALA305     -0.2715
    164  CB         9.1850   59.5950   46.2990 C.3   305  ALA305      0.0334
    165  N         11.9040   61.0710   47.3290 N.am  306  ILE306     -0.1977
    166  CA        12.6520   62.0280   48.1500 C.3   306  ILE306      0.1596
    167  C         13.1440   63.1540   47.2130 C.2   306  ILE306      0.2287
    168  O         12.9630   64.3280   47.4950 O.2   306  ILE306     -0.2864
    169  CB        13.8750   61.3810   48.8020 C.3   306  ILE306      0.0276
    170  CG1       13.4150   60.3760   49.8700 C.3   306  ILE306      0.0022
    171  CG2       14.8160   62.4250   49.3890 C.3   306  ILE306      0.0022
    172  CD1       14.5370   59.6120   50.5610 C.3   306  ILE306      0.0001
    173  N         12.2480   63.9580   44.1170 N.3   308  ASP308     -0.1239
    174  CA        11.2450   64.7510   43.4270 C.3   308  ASP308      0.1674
    175  C         10.5330   65.7130   44.4110 C.2   308  ASP308      0.2266
    176  O         10.1550   66.7920   43.9620 O.2   308  ASP308     -0.2867
    177  CB        10.1330   63.9720   42.7530 C.3   308  ASP308      0.1410
    178  CG        10.5990   62.9170   41.7780 C.2   308  ASP308      0.3668
    179  OD1       11.6960   63.0070   41.1720 O.co2 308  ASP308     -0.2456
    180  OD2        9.7370   62.0140   41.7570 O.co2 308  ASP308     -0.2456
@<TRIPOS>BOND
     1    29    30    1
     2    15    16    1
     3    15    14    1
     4    30    31    1
     5    30    33    1
     6    35    34    1
     7    35    36    1
     8    11    10    1
     9    11    14    1
    10    11    12    1
    11    16    17    1
    12    34    33    1
    13    19    18    1
    14    31    32    2
    15    31    38   am
    16    13    12    2
    17    38    39    1
    18    43    42    1
    19    40    39    1
    20    40    41    2
    21    37    36    1
    22    12    21   am
    23    17    18    2
    24    39    42    1
    25    18    20    1
    26   179   178   ar
    27    23    24    1
    28    23    22    1
    29   180   178   ar
    30   178   177    1
    31    21    22    1
    32   157   158    1
    33   157   154    1
    34     1     2    1
    35    22    25    1
    36   158   159    1
    37   177   174    1
    38     4     3    2
    39     3     2    1
    40     2     5    1
    41   174   173    1
    42   174   175    1
    43   154   155    1
    44   154   153    1
    45   159   153    1
    46    25    26    1
    47    74    73    2
    48   156   155    2
    49   176   175    2
    50   155   160   am
    51   153   151   am
    52    75    72    1
    53     5     6    1
    54    26    27    1
    55    73    72    1
    56    73    76   am
    57    72    71    1
    58   160   161    1
    59    83    81    1
    60   151   152    2
    61   151   150    1
    62   161   164    1
    63   161   162    1
    64     6     7    1
    65    79    78    2
    66    77    76    1
    67    77    78    1
    68    77    80    1
    69    27    28    1
    70   150   149    1
    71    78    84   am
    72    87    86    2
    73   163   162    2
    74   162   165   am
    75    81    80    1
    76    81    82    1
    77     9     8    1
    78     7     8    1
    79    86    85    1
    80   167   168    2
    81   167   166    1
    82    84    85    1
    83   165   166    1
    84   149   147   am
    85    85    88    1
    86    63    62    2
    87   166   169    1
    88   147   148    2
    89   147   146    1
    90   145   146    1
    91    70    69    2
    92   169   171    1
    93   169   170    1
    94    61    62    1
    95    61    60    1
    96    61    64    1
    97    62    67   am
    98    66    64    1
    99    88    89    1
   100    65    64    1
   101    69    68    1
   102   170   172    1
   103   142   143    1
   104   142   139    1
   105    51    49    1
   106    90    89   ar
   107    90    92   ar
   108   143   144    1
   109    89    91   ar
   110    67    68    1
   111    50    49    1
   112    47    46    2
   113    92    94   ar
   114    49    48    1
   115   139   140    1
   116   139   138    1
   117    91    93   ar
   118    48    45    1
   119   144   138    1
   120   141   140    2
   121    45    46    1
   122    45    44    1
   123    46    52   am
   124    94    93   ar
   125   138   133   am
   126    55    54    2
   127    52    53    1
   128    54    53    1
   129   120   119    1
   130    53    56    1
   131   133   134    2
   132   133   132    1
   133   136   135    1
   134   135   132    1
   135   135   137    1
   136   132   131    1
   137    56    57    1
   138   119   121    1
   139   119   118    1
   140   118   115    1
   141    58    57   ar
   142    57    59   ar
   143   111   109   ar
   144   111   113   ar
   145   109   108   ar
   146   102   100    1
   147   125   124    2
   148   107   108    1
   149   107   104    1
   150   113   112   ar
   151   108   110   ar
   152   112   110   ar
   153   100    99    1
   154   124   123    1
   155   106   105    2
   156   115   114    1
   157   115   116    1
   158   117   116    2
   159   101    99    1
   160   104   105    1
   161   104   103    1
   162    99    96    1
   163   123   122    1
   164   123   126    1
   165    96    95    1
   166    96    97    1
   167   126   127    1
   168    97    98    2
   169   127   128    1
   170   128   129    1
   171   129   130    1
