@<TRIPOS>MOLECULE
tmp/1d6jA00.pdb
 88 83 0 0 0
SMALL
GASTEIGER

@<TRIPOS>ATOM
      1  N         30.9650   44.9150   31.2560 N.3    27  SER27      -0.1217
      2  CA        31.9150   44.7680   32.3540 C.3    27  SER27       0.1889
      3  C         32.1770   46.1040   33.0120 C.2    27  SER27       0.2288
      4  O         32.3970   46.2130   34.2310 O.2    27  SER27      -0.2866
      5  CB        33.2400   44.2310   31.8110 C.3    27  SER27       0.2089
      6  OG        33.7920   45.1750   30.8850 O.3    27  SER27      -0.2183
      7  N         27.9910   47.5620   37.3330 N.3    31  LYS31      -0.1231
      8  CA        27.0400   46.6160   37.9620 C.3    31  LYS31       0.1693
      9  C         27.5590   46.0390   39.2790 C.2    31  LYS31       0.2592
     10  O         26.8260   45.8560   40.2250 O.2    31  LYS31      -0.2718
     11  CB        26.7160   45.4680   36.9890 C.3    31  LYS31       0.0285
     12  CG        27.9520   44.6480   36.3980 C.3    31  LYS31       0.0035
     13  CD        27.4000   43.6620   35.3670 C.3    31  LYS31       0.0206
     14  CE        28.4930   42.8760   34.5320 C.3    31  LYS31       0.1093
     15  NZ        29.2260   41.9500   35.4050 N.3    31  LYS31      -0.1314
     16  N         28.8530   45.7800   39.3380 N.am   32  SER32      -0.1952
     17  CA        29.4040   45.2360   40.5660 C.3    32  SER32       0.1924
     18  C         29.2700   46.2410   41.7130 C.2    32  SER32       0.2314
     19  O         28.9520   45.8830   42.8640 O.2    32  SER32      -0.2863
     20  CB        30.8700   44.9070   40.3410 C.3    32  SER32       0.2116
     21  OG        31.4100   44.4140   41.5250 O.3    32  SER32      -0.2180
     22  N         25.4640   39.0910   48.6480 N.3    52  ARG52      -0.1231
     23  CA        26.0910   39.2390   47.3430 C.3    52  ARG52       0.1694
     24  C         27.0540   38.0610   47.1080 C.2    52  ARG52       0.2591
     25  O         27.9940   37.8360   47.8750 O.2    52  ARG52      -0.2718
     26  CB        26.8780   40.5250   47.2840 C.3    52  ARG52       0.0321
     27  CG        27.2410   40.9260   45.8270 C.3    52  ARG52       0.0489
     28  CD        27.9990   42.2490   45.8910 C.3    52  ARG52       0.2205
     29  NE        29.2090   42.0860   46.6840 N.pl3  52  ARG52      -0.0865
     30  CZ        30.3610   41.6430   46.2010 C.cat  52  ARG52       0.5346
     31  NH1       30.4990   41.3270   44.9130 N.pl3  52  ARG52       0.1354
     32  NH2       31.3690   41.4760   47.0330 N.pl3  52  ARG52       0.1354
     33  N         26.7830   37.3130   46.0550 N.am   53  LEU53      -0.1980
     34  CA        27.5780   36.1720   45.6540 C.3    53  LEU53       0.1596
     35  C         28.6710   36.8430   44.8430 C.2    53  LEU53       0.2287
     36  O         28.4750   37.2140   43.6970 O.2    53  LEU53      -0.2864
     37  CB        26.7420   35.2370   44.7540 C.3    53  LEU53       0.0297
     38  CG        25.5650   34.6400   45.5620 C.3    53  LEU53       0.0022
     39  CD1       24.6080   33.9550   44.6260 C.3    53  LEU53       0.0001
     40  CD2       26.0900   33.6760   46.5910 C.3    53  LEU53       0.0001
     41  N         32.0170   37.2790   42.6790 N.3    55  GLY55      -0.1210
     42  CA        32.7010   36.5270   41.6520 C.3    55  GLY55       0.1956
     43  C         33.9120   35.7530   42.1020 C.2    55  GLY55       0.2611
     44  O         34.0440   34.5650   41.8530 O.2    55  GLY55      -0.2717
     45  N         34.8050   36.4250   42.7990 N.am   56  ASP56      -0.1973
     46  CA        35.9950   35.7750   43.3010 C.3    56  ASP56       0.1709
     47  C         35.7140   34.8040   44.4890 C.2    56  ASP56       0.2293
     48  O         36.3350   33.7810   44.5830 O.2    56  ASP56      -0.2864
     49  CB        37.0220   36.8520   43.6770 C.3    56  ASP56       0.1436
     50  CG        37.5660   37.6030   42.4390 C.2    56  ASP56       0.3671
     51  OD1       37.3210   37.1750   41.2770 O.co2  56  ASP56      -0.2456
     52  OD2       38.2480   38.6320   42.6450 O.co2  56  ASP56      -0.2456
     53  N         34.5970   31.8730   42.3830 N.3    59  ARG59      -0.1245
     54  CA        35.6470   31.2250   41.5990 C.3    59  ARG59       0.1563
     55  C         36.6930   30.4850   42.4160 C.2    59  ARG59       0.2260
     56  O         37.1450   29.4100   42.0470 O.2    59  ARG59      -0.2867
     57  CB        36.3120   32.2750   40.6870 C.3    59  ARG59       0.0307
     58  CG        35.5090   32.4650   39.4420 C.3    59  ARG59       0.0489
     59  CD        36.3070   33.2460   38.3570 C.3    59  ARG59       0.2205
     60  NE        36.0700   34.6700   38.5540 N.pl3  59  ARG59      -0.0865
     61  CZ        35.0790   35.3680   37.9960 C.cat  59  ARG59       0.5346
     62  NH1       34.2180   34.7950   37.1550 N.pl3  59  ARG59       0.1354
     63  NH2       34.8990   36.6200   38.3640 N.pl3  59  ARG59       0.1354
     64  N         26.3550   39.8860   40.2280 N.3    97  SER97      -0.1202
     65  CA        26.6430   40.6030   39.0200 C.3    97  SER97       0.2020
     66  C         27.6530   39.7170   38.2800 C.2    97  SER97       0.2619
     67  O         28.4780   40.1990   37.5440 O.2    97  SER97      -0.2717
     68  CB        27.2470   41.9660   39.3530 C.3    97  SER97       0.2103
     69  OG        28.3900   41.8060   40.1630 O.3    97  SER97      -0.2182
     70  N         27.5440   38.4150   38.4580 N.am   98  PHE98      -0.1961
     71  CA        28.5050   37.4880   37.8230 C.3    98  PHE98       0.1771
     72  C         28.5080   37.6320   36.3160 C.2    98  PHE98       0.2619
     73  O         27.4250   37.7480   35.6600 O.2    98  PHE98      -0.2715
     74  CB        28.1590   36.0440   38.1600 C.3    98  PHE98       0.0574
     75  CG        29.3010   35.0720   37.8770 C.ar   98  PHE98      -0.0200
     76  CD1       30.4180   35.0230   38.7310 C.ar   98  PHE98      -0.0042
     77  CD2       29.2510   34.2280   36.7770 C.ar   98  PHE98      -0.0042
     78  CE1       31.4760   34.1510   38.4950 C.ar   98  PHE98      -0.0003
     79  CE2       30.3020   33.3390   36.5160 C.ar   98  PHE98      -0.0003
     80  CZ        31.4330   33.3030   37.3860 C.ar   98  PHE98      -0.0000
     81  N         29.7090   37.6120   35.7450 N.am   99  ILE99      -0.1977
     82  CA        29.8120   37.7400   34.2750 C.3    99  ILE99       0.1596
     83  C         28.8380   36.7900   33.5470 C.2    99  ILE99       0.2287
     84  O         28.7700   35.5790   33.8440 O.2    99  ILE99      -0.2864
     85  CB        31.2840   37.5210   33.8200 C.3    99  ILE99       0.0276
     86  CG1       31.3870   37.7730   32.3230 C.3    99  ILE99       0.0022
     87  CG2       31.7600   36.0890   34.1980 C.3    99  ILE99       0.0022
     88  CD1       32.7580   38.2850   31.9140 C.3    99  ILE99       0.0001
@<TRIPOS>BOND
     1     6     5    1
     2     1     2    1
     3     5     2    1
     4    88    86    1
     5    86    85    1
     6     2     3    1
     7     3     4    2
     8    83    84    2
     9    83    82    1
    10    85    87    1
    11    85    82    1
    12    82    81    1
    13    14    13    1
    14    14    15    1
    15    13    12    1
    16    73    72    2
    17    81    72   am
    18    72    71    1
    19    12    11    1
    20    79    77   ar
    21    79    80   ar
    22    77    75   ar
    23    11     8    1
    24    62    61    1
    25     7     8    1
    26    80    78   ar
    27    67    66    2
    28    71    74    1
    29    71    70    1
    30    75    74    1
    31    75    76   ar
    32     8     9    1
    33    61    63    1
    34    61    60    2
    35    66    70   am
    36    66    65    1
    37    59    60    1
    38    59    58    1
    39    78    76   ar
    40    65    68    1
    41    65    64    1
    42     9    16   am
    43     9    10    2
    44    16    17    1
    45    68    69    1
    46    58    57    1
    47    20    17    1
    48    20    21    1
    49    17    18    1
    50    57    54    1
    51    51    50   ar
    52    54    53    1
    53    54    55    1
    54    42    43    1
    55    42    41    1
    56    18    19    2
    57    44    43    2
    58    56    55    2
    59    43    45   am
    60    50    52   ar
    61    50    49    1
    62    45    46    1
    63    46    49    1
    64    46    47    1
    65    36    35    2
    66    47    48    2
    67    39    38    1
    68    37    38    1
    69    37    34    1
    70    35    34    1
    71    31    30    1
    72    38    40    1
    73    34    33    1
    74    27    28    1
    75    27    26    1
    76    28    29    1
    77    33    24   am
    78    30    29    2
    79    30    32    1
    80    24    23    1
    81    24    25    2
    82    26    23    1
    83    23    22    1
