@<TRIPOS>MOLECULE
tmp/1d6nB00.pdb
 112 109 0 0 0
SMALL
GASTEIGER

@<TRIPOS>ATOM
      1  N         36.5440   18.7050   14.4890 N.3   100  SER100     -0.1202
      2  CA        37.4120   17.5330   14.6820 C.3   100  SER100      0.2020
      3  C         37.1650   16.7910   16.0070 C.2   100  SER100      0.2619
      4  O         36.8690   17.4170   17.0310 O.2   100  SER100     -0.2717
      5  CB        38.8910   17.9420   14.5980 C.3   100  SER100      0.2103
      6  OG        39.1170   19.1880   15.2320 O.3   100  SER100     -0.2182
      7  N         37.2870   15.4570   15.9750 N.am  101  TYR101     -0.1961
      8  CA        37.1180   14.6170   17.1710 C.3   101  TYR101      0.1771
      9  C         38.3030   14.8210   18.1120 C.2   101  TYR101      0.2623
     10  O         38.8020   13.8660   18.7270 O.2   101  TYR101     -0.2715
     11  CB        37.0910   13.1260   16.7900 C.3   101  TYR101      0.0574
     12  CG        38.4010   12.6430   16.1650 C.ar  101  TYR101     -0.0198
     13  CD1       39.4200   12.1350   16.9790 C.ar  101  TYR101     -0.0009
     14  CD2       38.5780   12.7020   14.7770 C.ar  101  TYR101     -0.0009
     15  CE1       40.6160   11.6850   16.4060 C.ar  101  TYR101      0.0417
     16  CE2       39.7740   12.2530   14.2040 C.ar  101  TYR101      0.0417
     17  CZ        40.7930   11.7440   15.0190 C.ar  101  TYR101      0.1957
     18  OH        41.9540   11.3070   14.4620 O.3   101  TYR101     -0.2866
     19  N         38.7040   16.0740   18.1810 N.am  102  CYS102     -0.1912
     20  CA        39.8970   16.5060   18.9190 C.3   102  CYS102      0.2016
     21  C         40.1070   15.6270   20.1550 C.2   102  CYS102      0.2664
     22  O         39.1830   15.4150   20.9540 O.2   102  CYS102     -0.2711
     23  CB        39.7830   17.9900   19.2700 C.2   102  CYS102      0.0465
     24  SG        40.5380   18.8670   18.4430 S.2   102  CYS102     -0.0529
     25  N         40.3550   14.7150   20.5420 N.am  103  ASN103     -0.1969
     26  CA        41.0730   13.8760   21.4370 C.3   103  ASN103      0.1688
     27  C         42.0870   12.9390   20.7890 C.2   103  ASN103      0.2292
     28  O         42.5150   13.0420   19.6300 O.2   103  ASN103     -0.2864
     29  CB        40.0730   13.0040   22.2580 C.3   103  ASN103      0.1181
     30  CG        39.0480   13.8370   23.0310 C.2   103  ASN103      0.2629
     31  OD1       39.4240   14.6260   23.8960 O.2   103  ASN103     -0.2716
     32  ND2       37.7610   13.7080   22.7690 N.am  103  ASN103     -0.0877
     33  N         47.8280   17.3600    9.1110 N.3   132  ILE132     -0.1245
     34  CA        47.7640   15.9080    9.2120 C.3   132  ILE132      0.1561
     35  C         46.4990   15.4280    8.5470 C.2   132  ILE132      0.2260
     36  O         45.5710   16.2000    8.3290 O.2   132  ILE132     -0.2867
     37  CB        47.7330   15.4000   10.6750 C.3   132  ILE132      0.0252
     38  CG1       47.8140   13.8670   10.7050 C.3   132  ILE132      0.0019
     39  CG2       46.4770   15.8820   11.3610 C.3   132  ILE132      0.0019
     40  CD1       47.7570   13.2680   12.0880 C.3   132  ILE132      0.0001
     41  N         44.5700   11.9230    9.2850 N.3   134  ASP134     -0.1239
     42  CA        44.4940   10.6410    9.9670 C.3   134  ASP134      0.1674
     43  C         43.6890    9.6750    9.1240 C.2   134  ASP134      0.2266
     44  O         43.9360    9.5360    7.9250 O.2   134  ASP134     -0.2867
     45  CB        43.8500   10.8070   11.3430 C.3   134  ASP134      0.1410
     46  CG        43.8880    9.5370   12.1560 C.2   134  ASP134      0.3668
     47  OD1       44.6220    8.6130   11.7420 O.co2 134  ASP134     -0.2456
     48  OD2       43.2010    9.4660   13.2030 O.co2 134  ASP134     -0.2456
     49  N         48.8670    9.5160    7.7710 N.3   162  LYS162     -0.1245
     50  CA        48.9930    8.4260    8.7150 C.3   162  LYS162      0.1561
     51  C         48.7150    7.1030    8.0480 C.2   162  LYS162      0.2260
     52  O         47.7140    6.9380    7.3490 O.2   162  LYS162     -0.2867
     53  CB        48.0400    8.6370    9.8930 C.3   162  LYS162      0.0271
     54  CG        48.3210    7.7560   11.0820 C.3   162  LYS162      0.0035
     55  CD        47.8720    8.4410   12.3660 C.3   162  LYS162      0.0206
     56  CE        48.6660    9.7110   12.6400 C.3   162  LYS162      0.1093
     57  NZ        48.1110   10.4380   13.8070 N.3   162  LYS162     -0.1314
     58  N         50.5330    6.4570   15.3500 N.3   182  LYS182     -0.1231
     59  CA        50.9110    6.8700   16.6810 C.3   182  LYS182      0.1693
     60  C         50.3460    8.2510   16.9760 C.2   182  LYS182      0.2592
     61  O         49.6090    8.8230   16.1670 O.2   182  LYS182     -0.2718
     62  CB        52.4300    6.8640   16.8310 C.3   182  LYS182      0.0285
     63  CG        53.0150    5.4890   17.1040 C.3   182  LYS182      0.0035
     64  CD        54.5520    5.5150   17.2100 C.3   182  LYS182      0.0206
     65  CE        55.2420    5.6780   15.8500 C.3   182  LYS182      0.1093
     66  NZ        54.9770    4.5430   14.9290 N.3   182  LYS182     -0.1314
     67  N         50.6730    8.7740   18.1510 N.am  183  PHE183     -0.1962
     68  CA        50.1980   10.0820   18.5130 C.3   183  PHE183      0.1771
     69  C         51.3570   11.0400   18.7050 C.2   183  PHE183      0.2619
     70  O         52.2250   10.8500   19.5700 O.2   183  PHE183     -0.2715
     71  CB        49.3190   10.0190   19.7670 C.3   183  PHE183      0.0574
     72  CG        47.9360   10.5720   19.5510 C.ar  183  PHE183     -0.0200
     73  CD1       47.0920   10.0150   18.5810 C.ar  183  PHE183     -0.0042
     74  CD2       47.4880   11.6790   20.2760 C.ar  183  PHE183     -0.0042
     75  CE1       45.8250   10.5510   18.3340 C.ar  183  PHE183     -0.0003
     76  CE2       46.2150   12.2260   20.0380 C.ar  183  PHE183     -0.0003
     77  CZ        45.3860   11.6570   19.0630 C.ar  183  PHE183     -0.0000
     78  N         51.3460   12.0750   17.8660 N.am  184  VAL184     -0.1977
     79  CA        52.3550   13.1320   17.8530 C.3   184  VAL184      0.1596
     80  C         51.7330   14.4660   18.3010 C.2   184  VAL184      0.2287
     81  O         50.5210   14.5660   18.4440 O.2   184  VAL184     -0.2864
     82  CB        52.8930   13.2860   16.4310 C.3   184  VAL184      0.0276
     83  CG1       53.3210   11.9200   15.8880 C.3   184  VAL184      0.0022
     84  CG2       51.8150   13.8860   15.5430 C.3   184  VAL184      0.0022
     85  N         50.1180   20.7070   15.8030 N.3   189  LEU189     -0.1231
     86  CA        49.5090   19.4800   16.2990 C.3   189  LEU189      0.1693
     87  C         49.3640   19.6670   17.8080 C.2   189  LEU189      0.2592
     88  O         50.2810   19.3940   18.5790 O.2   189  LEU189     -0.2718
     89  CB        50.4660   18.3190   16.0350 C.3   189  LEU189      0.0284
     90  CG        50.6060   17.9880   14.5470 C.3   189  LEU189      0.0019
     91  CD1       49.3730   17.2890   13.9710 C.3   189  LEU189      0.0001
     92  CD2       50.8240   19.2280   13.6770 C.3   189  LEU189      0.0001
     93  N         48.1870   20.1400   18.2090 N.am  190  ASP190     -0.1960
     94  CA        47.8620   20.3990   19.6120 C.3   190  ASP190      0.1840
     95  C         47.0680   19.2490   20.2280 C.2   190  ASP190      0.2622
     96  O         46.4290   18.4660   19.5240 O.2   190  ASP190     -0.2715
     97  CB        47.0310   21.6920   19.7340 C.3   190  ASP190      0.1450
     98  CG        45.5470   21.4130   19.9690 C.2   190  ASP190      0.3671
     99  OD1       45.0750   21.6200   21.1080 O.co2 190  ASP190     -0.2456
    100  OD2       44.8650   20.9740   19.0160 O.co2 190  ASP190     -0.2456
    101  N         47.0990   19.1870   21.5540 N.am  191  TYR191     -0.1974
    102  CA        46.3870   18.1600   22.3030 C.3   191  TYR191      0.1639
    103  C         45.6210   18.8930   23.3910 C.2   191  TYR191      0.2290
    104  O         46.1350   19.1170   24.4900 O.2   191  TYR191     -0.2864
    105  CB        47.3890   17.1770   22.9070 C.3   191  TYR191      0.0560
    106  CG        46.7770   16.0600   23.7130 C.ar  191  TYR191     -0.0198
    107  CD1       45.8620   15.1800   23.1430 C.ar  191  TYR191     -0.0009
    108  CD2       47.1530   15.8490   25.0390 C.ar  191  TYR191     -0.0009
    109  CE1       45.3440   14.1160   23.8660 C.ar  191  TYR191      0.0417
    110  CE2       46.6420   14.7910   25.7660 C.ar  191  TYR191      0.0417
    111  CZ        45.7390   13.9280   25.1710 C.ar  191  TYR191      0.1957
    112  OH        45.2380   12.8660   25.8790 O.3   191  TYR191     -0.2866
@<TRIPOS>BOND
     1    52    51    2
     2    49    50    1
     3    44    43    2
     4    51    50    1
     5    36    35    2
     6    35    34    1
     7    50    53    1
     8    33    34    1
     9    43    42    1
    10    34    37    1
    11    41    42    1
    12    53    54    1
    13    42    45    1
    14    37    38    1
    15    37    39    1
    16    38    40    1
    17    54    55    1
    18    45    46    1
    19    47    46   ar
    20    46    48   ar
    21    55    56    1
    22    56    57    1
    23    92    90    1
    24    91    90    1
    25    16    14   ar
    26    16    17   ar
    27    18    17    1
    28     1     2    1
    29    90    89    1
    30     5     2    1
    31     5     6    1
    32     2     3    1
    33    14    12   ar
    34    66    65    1
    35    17    15   ar
    36    58    59    1
    37    84    82    1
    38    85    86    1
    39    65    64    1
    40    83    82    1
    41     7     3   am
    42     7     8    1
    43     3     4    2
    44    89    86    1
    45    12    11    1
    46    12    13   ar
    47    61    60    2
    48    86    87    1
    49    15    13   ar
    50    82    79    1
    51    59    62    1
    52    59    60    1
    53    11     8    1
    54    62    63    1
    55    60    67   am
    56    63    64    1
    57     8     9    1
    58    87    93   am
    59    87    88    2
    60    79    78    1
    61    79    80    1
    62    78    69   am
    63     9    19   am
    64     9    10    2
    65    67    68    1
    66    19    20    1
    67    93    94    1
    68    80    81    2
    69    75    73   ar
    70    75    77   ar
    71    24    23    2
    72    68    69    1
    73    68    71    1
    74    73    72   ar
    75    69    70    2
    76    20    23    1
    77    20    21    1
    78   100    98   ar
    79    77    76   ar
    80    96    95    2
    81    72    71    1
    82    72    74   ar
    83    94    97    1
    84    94    95    1
    85    28    27    2
    86    97    98    1
    87    98    99   ar
    88    76    74   ar
    89    21    25   am
    90    21    22    2
    91    95   101   am
    92    25    26    1
    93    27    26    1
    94    26    29    1
    95   101   102    1
    96    29    30    1
    97   102   105    1
    98   102   103    1
    99    32    30   am
   100   105   106    1
   101    30    31    2
   102   107   106   ar
   103   107   109   ar
   104   103   104    2
   105   106   108   ar
   106   109   111   ar
   107   108   110   ar
   108   111   110   ar
   109   111   112    1
