@<TRIPOS>MOLECULE
tmp/1d6nB01.pdb
 164 162 0 0 0
SMALL
GASTEIGER

@<TRIPOS>ATOM
      1  N         41.9050   24.1220    6.8450 N.3    63  VAL63      -0.1231
      2  CA        41.0020   23.4220    7.7430 C.3    63  VAL63       0.1692
      3  C         41.4640   23.7890    9.1310 C.2    63  VAL63       0.2592
      4  O         42.6340   23.6420    9.4490 O.2    63  VAL63      -0.2718
      5  CB        41.1080   21.9040    7.5610 C.3    63  VAL63       0.0266
      6  CG1       40.1770   21.1930    8.5400 C.3    63  VAL63       0.0020
      7  CG2       40.7730   21.5360    6.1100 C.3    63  VAL63       0.0020
      8  N         40.5510   24.2620    9.9630 N.am   64  LEU64      -0.1966
      9  CA        40.9350   24.6760   11.3020 C.3    64  LEU64       0.1728
     10  C         40.6790   23.6410   12.3960 C.2    64  LEU64       0.2616
     11  O         40.6930   22.4430   12.1310 O.2    64  LEU64      -0.2715
     12  CB        40.2330   25.9960   11.6390 C.3    64  LEU64       0.0311
     13  CG        40.9500   26.9650   12.5820 C.3    64  LEU64       0.0022
     14  CD1       40.7730   28.3550   12.0150 C.3    64  LEU64       0.0001
     15  CD2       40.4140   26.8640   14.0070 C.3    64  LEU64       0.0001
     16  N         40.4390   24.1310   13.6140 N.am   65  ALA65      -0.1963
     17  CA        40.2030   23.3250   14.8170 C.3    65  ALA65       0.1728
     18  C         41.5440   23.2340   15.5480 C.2    65  ALA65       0.2616
     19  O         41.6610   22.6380   16.6150 O.2    65  ALA65      -0.2715
     20  CB        39.6840   21.9270   14.4580 C.3    65  ALA65       0.0334
     21  N         42.5480   23.8660   14.9480 N.am   66  GLY66      -0.1955
     22  CA        43.8890   23.8740   15.4960 C.3    66  GLY66       0.1869
     23  C         44.8240   23.3650   14.4180 C.2    66  GLY66       0.2309
     24  O         45.3720   22.2680   14.5260 O.2    66  GLY66      -0.2863
     25  N         35.3400   22.9940    9.9400 N.3    98  LEU98      -0.1231
     26  CA        35.1900   21.5460    9.7640 C.3    98  LEU98       0.1693
     27  C         35.4120   20.7280   11.0470 C.2    98  LEU98       0.2593
     28  O         35.5040   19.4960   11.0000 O.2    98  LEU98      -0.2718
     29  CB        36.1300   21.0430    8.6600 C.3    98  LEU98       0.0284
     30  CG        36.1610   19.5320    8.3990 C.3    98  LEU98       0.0019
     31  CD1       34.7480   18.9780    8.2270 C.3    98  LEU98       0.0001
     32  CD2       37.0000   19.2610    7.1790 C.3    98  LEU98       0.0001
     33  N         35.4870   21.4150   12.1870 N.am   99  GLY99      -0.1942
     34  CA        35.6930   20.7500   13.4690 C.3    99  GLY99       0.2014
     35  C         36.7160   19.6060   13.5090 C.2    99  GLY99       0.2640
     36  O         37.6460   19.5510   12.6810 O.2    99  GLY99      -0.2714
     37  N         36.5440   18.7050   14.4890 N.am  100  SER100     -0.1935
     38  CA        37.4120   17.5330   14.6820 C.3   100  SER100      0.2055
     39  C         37.1650   16.7910   16.0070 C.2   100  SER100      0.2643
     40  O         36.8690   17.4170   17.0310 O.2   100  SER100     -0.2714
     41  CB        38.8910   17.9420   14.5980 C.3   100  SER100      0.2130
     42  OG        39.1170   19.1880   15.2320 O.3   100  SER100     -0.2179
     43  N         37.2870   15.4570   15.9750 N.am  101  TYR101     -0.1959
     44  CA        37.1180   14.6170   17.1710 C.3   101  TYR101      0.1771
     45  C         38.3030   14.8210   18.1120 C.2   101  TYR101      0.2622
     46  O         38.8020   13.8660   18.7270 O.2   101  TYR101     -0.2715
     47  CB        37.0910   13.1260   16.7900 C.3   101  TYR101      0.0574
     48  CG        38.4010   12.6430   16.1650 C.ar  101  TYR101     -0.0198
     49  CD1       39.4200   12.1350   16.9790 C.ar  101  TYR101     -0.0009
     50  CD2       38.5780   12.7020   14.7770 C.ar  101  TYR101     -0.0009
     51  CE1       40.6160   11.6850   16.4060 C.ar  101  TYR101      0.0417
     52  CE2       39.7740   12.2530   14.2040 C.ar  101  TYR101      0.0417
     53  CZ        40.7930   11.7440   15.0190 C.ar  101  TYR101      0.1957
     54  OH        41.9540   11.3070   14.4620 O.3   101  TYR101     -0.2866
     55  N         38.7040   16.0740   18.1810 N.am  102  CYS102     -0.1926
     56  CA        39.8970   16.5060   18.9190 C.3   102  CYS102      0.1884
     57  C         40.1070   15.6270   20.1550 C.2   102  CYS102      0.2338
     58  O         39.1830   15.4150   20.9540 O.2   102  CYS102     -0.2860
     59  CB        39.7830   17.9900   19.2700 C.2   102  CYS102      0.0451
     60  SG        40.5380   18.8670   18.4430 S.2   102  CYS102     -0.0529
     61  N         39.1140    6.4880   16.3220 N.3   107  THR107     -0.1218
     62  CA        38.5240    7.4020   15.3390 C.3   107  THR107      0.1862
     63  C         37.2330    6.8770   14.6850 C.2   107  THR107      0.2287
     64  O         37.2080    5.7490   14.1870 O.2   107  THR107     -0.2866
     65  CB        39.5340    7.7130   14.2160 C.3   107  THR107      0.1770
     66  OG1       40.6710    8.3720   14.7540 O.3   107  THR107     -0.2211
     67  CG2       38.9560    8.6160   13.1250 C.3   107  THR107      0.0375
     68  N         46.2570   20.9470    5.7120 N.3   130  GLU130     -0.1230
     69  CA        45.8940   20.3500    6.9870 C.3   130  GLU130      0.1676
     70  C         47.1180   19.7150    7.6980 C.2   130  GLU130      0.2172
     71  O         47.8760   18.9400    7.0950 O.2   130  GLU130     -0.4277
     72  CB        44.7770   19.3300    6.7890 C.3   130  GLU130      0.0403
     73  CG        43.4220   19.8180    7.3170 C.3   130  GLU130      0.1161
     74  CD        42.5520   18.5620    7.3870 C.2   130  GLU130      0.3649
     75  OE1       41.5710   18.4100    6.5640 O.co2 130  GLU130     -0.2457
     76  OE2       42.8000   17.6540    8.2700 O.co2 130  GLU130     -0.2457
     77  N         46.6520   20.1520    8.7290 N.2   131  ASP131     -0.2337
     78  CA        47.8600   19.6520    9.4430 C.3   131  ASP131      0.2008
     79  C         48.4650   18.4330    8.7500 C.3   131  ASP131      0.3481
     80  O         49.3380   18.1290    7.8430 O.3   131  ASP131     -0.1616
     81  CB        47.3600   18.8600   10.6460 C.3   131  ASP131      0.1419
     82  CG        45.9690   18.2600   10.4300 C.2   131  ASP131      0.3193
     83  OD1       45.8120   16.9790   10.4320 O.3   131  ASP131     -0.4484
     84  OD2       44.9540   19.0340   10.2470 O.2   131  ASP131     -0.2500
     85  N         47.8280   17.3600    9.1110 N.3   132  ILE132     -0.1469
     86  CA        47.7640   15.9080    9.2120 C.3   132  ILE132      0.1598
     87  C         46.4990   15.4280    8.5470 C.2   132  ILE132      0.2579
     88  O         45.5710   16.2000    8.3290 O.2   132  ILE132     -0.2718
     89  CB        47.7330   15.4000   10.6750 C.3   132  ILE132      0.0689
     90  CG1       47.8140   13.8670   10.7050 C.3   132  ILE132      0.0056
     91  CG2       46.4770   15.8820   11.3610 C.3   132  ILE132      0.2102
     92  CD1       47.7570   13.2680   12.0880 C.3   132  ILE132      0.0002
     93  N         46.4800   14.1370    8.2430 N.am  133  ILE133     -0.1966
     94  CA        45.3610   13.4630    7.6010 C.3   133  ILE133      0.1727
     95  C         45.3450   12.0890    8.2240 C.2   133  ILE133      0.2616
     96  O         46.0380   11.1970    7.7620 O.2   133  ILE133     -0.2715
     97  CB        45.6090   13.2760    6.1090 C.3   133  ILE133      0.0290
     98  CG1       45.5940   14.6260    5.3890 C.3   133  ILE133      0.0022
     99  CG2       44.6090   12.3120    5.5580 C.3   133  ILE133      0.0023
    100  CD1       44.2200   15.2850    5.3100 C.3   133  ILE133      0.0001
    101  N         44.5700   11.9230    9.2850 N.am  134  ASP134     -0.1957
    102  CA        44.4940   10.6410    9.9670 C.3   134  ASP134      0.1840
    103  C         43.6890    9.6750    9.1240 C.2   134  ASP134      0.2623
    104  O         43.9360    9.5360    7.9250 O.2   134  ASP134     -0.2715
    105  CB        43.8500   10.8070   11.3430 C.3   134  ASP134      0.1450
    106  CG        43.8880    9.5370   12.1560 C.2   134  ASP134      0.3671
    107  OD1       44.6220    8.6130   11.7420 O.co2 134  ASP134     -0.2456
    108  OD2       43.2010    9.4660   13.2030 O.co2 134  ASP134     -0.2456
    109  N         42.7300    9.0020    9.7480 N.am  135  THR135     -0.1937
    110  CA        41.8880    8.0560    9.0340 C.3   135  THR135      0.2028
    111  C         41.1710    8.7190    7.8560 C.2   135  THR135      0.2643
    112  O         40.2800    8.1260    7.2800 O.2   135  THR135     -0.2714
    113  CB        40.8190    7.4530    9.9500 C.3   135  THR135      0.1808
    114  OG1       39.7420    8.3820   10.1000 O.3   135  THR135     -0.2208
    115  CG2       41.3950    7.1540   11.3050 C.3   135  THR135      0.0379
    116  N         41.5490    9.9460    7.5110 N.am  136  GLY136     -0.1939
    117  CA        40.9230   10.6330    6.3930 C.3   136  GLY136      0.2014
    118  C         39.4130   10.5980    6.4780 C.2   136  GLY136      0.2639
    119  O         38.7030   10.8140    5.4870 O.2   136  GLY136     -0.2714
    120  N         38.9130   10.3220    7.6770 N.am  137  LYS137     -0.1963
    121  CA        37.4760   10.2390    7.8830 C.3   137  LYS137      0.1728
    122  C         36.8390   11.5740    7.5680 C.2   137  LYS137      0.2617
    123  O         36.2650   11.7410    6.4950 O.2   137  LYS137     -0.2715
    124  CB        37.1740    9.8180    9.3230 C.3   137  LYS137      0.0311
    125  CG        35.8930    9.0260    9.4840 C.3   137  LYS137      0.0038
    126  CD        36.0260    7.9720   10.5800 C.3   137  LYS137      0.0206
    127  CE        37.0370    6.8840   10.2030 C.3   137  LYS137      0.1093
    128  NZ        36.6880    6.1720    8.9300 N.3   137  LYS137     -0.1314
    129  N         36.9690   12.5260    8.4910 N.am  138  THR138     -0.1937
    130  CA        36.3900   13.8660    8.3290 C.3   138  THR138      0.2028
    131  C         36.8290   14.5880    7.0480 C.2   138  THR138      0.2642
    132  O         36.0190   15.2370    6.3800 O.2   138  THR138     -0.2714
    133  CB        36.7230   14.7880    9.5400 C.3   138  THR138      0.1808
    134  OG1       38.1240   15.0920    9.5530 O.3   138  THR138     -0.2208
    135  CG2       36.3420   14.1120   10.8480 C.3   138  THR138      0.0379
    136  N         38.1070   14.4900    6.7050 N.am  139  MET139     -0.1976
    137  CA        38.5770   15.1470    5.4960 C.3   139  MET139      0.1605
    138  C         37.6890   14.6770    4.3480 C.2   139  MET139      0.2287
    139  O         37.1450   15.4940    3.6140 O.2   139  MET139     -0.2864
    140  CB        40.0540   14.8100    5.2240 C.3   139  MET139      0.0413
    141  CG        40.6610   15.5790    4.0470 C.3   139  MET139      0.0598
    142  SD        40.4380   17.3910    4.1690 S.3   139  MET139     -0.1393
    143  CE        41.6380   17.9760    2.9380 C.3   139  MET139      0.0692
    144  N         51.4890   23.0530   15.2390 N.3   188  ALA188     -0.1231
    145  CA        50.1500   22.7300   14.6220 C.3   188  ALA188      0.1694
    146  C         49.8620   21.2380   14.6540 C.2   188  ALA188      0.2592
    147  O         49.4300   20.6490   13.6520 O.2   188  ALA188     -0.2718
    148  CB        50.0460   23.3680   13.2360 C.3   188  ALA188      0.0304
    149  N         50.1180   20.7070   15.8030 N.am  189  LEU189     -0.1966
    150  CA        49.5090   19.4800   16.2990 C.3   189  LEU189      0.1728
    151  C         49.3640   19.6670   17.8080 C.2   189  LEU189      0.2616
    152  O         50.2810   19.3940   18.5790 O.2   189  LEU189     -0.2715
    153  CB        50.4660   18.3190   16.0350 C.3   189  LEU189      0.0311
    154  CG        50.6060   17.9880   14.5470 C.3   189  LEU189      0.0022
    155  CD1       49.3730   17.2890   13.9710 C.3   189  LEU189      0.0001
    156  CD2       50.8240   19.2280   13.6770 C.3   189  LEU189      0.0001
    157  N         48.1870   20.1400   18.2090 N.am  190  ASP190     -0.1971
    158  CA        47.8620   20.3990   19.6120 C.3   190  ASP190      0.1709
    159  C         47.0680   19.2490   20.2280 C.2   190  ASP190      0.2293
    160  O         46.4290   18.4660   19.5240 O.2   190  ASP190     -0.2864
    161  CB        47.0310   21.6920   19.7340 C.3   190  ASP190      0.1436
    162  CG        45.5470   21.4130   19.9690 C.2   190  ASP190      0.3671
    163  OD1       45.0750   21.6200   21.1080 O.co2 190  ASP190     -0.2456
    164  OD2       44.8650   20.9740   19.0160 O.co2 190  ASP190     -0.2456
@<TRIPOS>BOND
     1   143   142    1
     2   139   138    2
     3   141   142    1
     4   141   140    1
     5   138   137    1
     6   140   137    1
     7   100    98    1
     8    98    97    1
     9   119   118    2
    10   137   136    1
    11    99    97    1
    12    68    69    1
    13    97    94    1
    14     7     5    1
    15   132   131    2
    16   117   118    1
    17   117   116    1
    18   118   120   am
    19   123   122    2
    20    75    74   ar
    21   136   131   am
    22    72    69    1
    23    72    73    1
    24     1     2    1
    25    69    70    1
    26   131   130    1
    27    71    70    1
    28    71    79    1
    29    32    30    1
    30   112   111    2
    31    73    74    1
    32    74    76   ar
    33   116   111   am
    34     5     2    1
    35     5     6    1
    36   122   121    1
    37   122   129   am
    38    94    95    1
    39    94    93    1
    40   120   121    1
    41    70    77    2
    42     2     3    1
    43    96    95    2
    44    80    79    1
    45   111   110    1
    46   121   124    1
    47   104   103    2
    48    95   101   am
    49    31    30    1
    50    93    87   am
    51    88    87    2
    52   130   129    1
    53   130   133    1
    54    30    29    1
    55    87    86    1
    56    29    26    1
    57    77    78    1
    58    79    85    1
    59    79    78    1
    60   128   127    1
    61   110   109    1
    62   110   113    1
    63    85    86    1
    64   103   109   am
    65   103   102    1
    66     3     4    2
    67     3     8   am
    68    86    89    1
    69   101   102    1
    70   124   125    1
    71    78    81    1
    72   125   126    1
    73   133   134    1
    74   133   135    1
    75    26    25    1
    76    26    27    1
    77   113   114    1
    78   113   115    1
    79     8     9    1
    80   102   105    1
    81   127   126    1
    82    84    82    2
    83    82    83    1
    84    82    81    1
    85    83    91    1
    86    89    90    1
    87    89    91    1
    88    90    92    1
    89    28    27    2
    90    27    33   am
    91     9    12    1
    92     9    10    1
    93   105   106    1
    94    12    13    1
    95   107   106   ar
    96    14    13    1
    97    11    10    2
    98   106   108   ar
    99    33    34    1
   100    10    16   am
   101    13    15    1
   102    36    35    2
   103    67    65    1
   104   148   145    1
   105    34    35    1
   106    35    37   am
   107    16    17    1
   108   147   146    2
   109   156   154    1
   110   155   154    1
   111    64    63    2
   112    52    50   ar
   113    52    53   ar
   114    65    66    1
   115    65    62    1
   116    23    24    2
   117    23    22    1
   118    20    17    1
   119    54    53    1
   120    37    38    1
   121   154   153    1
   122    41    38    1
   123    41    42    1
   124   145   146    1
   125   145   144    1
   126   146   149   am
   127    38    39    1
   128    63    62    1
   129    50    48   ar
   130    17    18    1
   131    21    22    1
   132    21    18   am
   133    53    51   ar
   134    62    61    1
   135    18    19    2
   136   149   150    1
   137    43    39   am
   138    43    44    1
   139    39    40    2
   140   153   150    1
   141    48    47    1
   142    48    49   ar
   143   150   151    1
   144    51    49   ar
   145    47    44    1
   146    44    45    1
   147   151   157   am
   148   151   152    2
   149    45    55   am
   150    45    46    2
   151    55    56    1
   152   157   158    1
   153    60    59    2
   154    56    59    1
   155    56    57    1
   156   164   162   ar
   157   160   159    2
   158   158   161    1
   159   158   159    1
   160   161   162    1
   161   162   163   ar
   162    57    58    2
