@<TRIPOS>MOLECULE
tmp/1d6pA00.pdb
 131 130 0 0 0
SMALL
GASTEIGER

@<TRIPOS>ATOM
      1  N         -7.5070    4.5140   31.1710 N.3    49  ASP49      -0.1239
      2  CA        -7.5390    4.1450   32.5720 C.3    49  ASP49       0.1674
      3  C         -6.3180    3.3770   32.9770 C.2    49  ASP49       0.2266
      4  O         -6.3020    2.7980   34.0540 O.2    49  ASP49      -0.2867
      5  CB        -8.7930    3.3770   32.9560 C.3    49  ASP49       0.1410
      6  CG        -8.9600    2.1030   32.1810 C.2    49  ASP49       0.3668
      7  OD1       -7.9930    1.6100   31.5830 O.co2  49  ASP49      -0.2456
      8  OD2      -10.0830    1.5850   32.1620 O.co2  49  ASP49      -0.2456
      9  N         -6.0890   -5.7400   29.1070 N.3    53  ASP53      -0.1239
     10  CA        -7.0160   -6.8710   28.9680 C.3    53  ASP53       0.1674
     11  C         -6.2320   -8.0340   28.3680 C.2    53  ASP53       0.2266
     12  O         -5.7270   -7.9360   27.2400 O.2    53  ASP53      -0.2867
     13  CB        -8.1780   -6.5160   28.0590 C.3    53  ASP53       0.1410
     14  CG        -9.3880   -6.0390   28.8230 C.2    53  ASP53       0.3668
     15  OD1      -10.4690   -5.8810   28.1810 O.co2  53  ASP53      -0.2456
     16  OD2       -9.2500   -5.8260   30.0530 O.co2  53  ASP53      -0.2456
     17  N        -10.4980  -14.4540   26.9730 N.3    57  PHE57      -0.1227
     18  CA       -11.6770  -13.8080   27.5280 C.3    57  PHE57       0.1736
     19  C        -11.4030  -12.3360   27.8680 C.2    57  PHE57       0.2595
     20  O        -12.2380  -11.6610   28.4790 O.2    57  PHE57      -0.2718
     21  CB       -12.1520  -14.5560   28.7750 C.3    57  PHE57       0.0547
     22  CG       -12.6490  -15.9560   28.4910 C.ar   57  PHE57      -0.0202
     23  CD1      -12.0020  -17.0550   29.0200 C.ar   57  PHE57      -0.0042
     24  CD2      -13.7620  -16.1590   27.6680 C.ar   57  PHE57      -0.0042
     25  CE1      -12.4510  -18.3450   28.7370 C.ar   57  PHE57      -0.0003
     26  CE2      -14.2230  -17.4400   27.3770 C.ar   57  PHE57      -0.0003
     27  CZ       -13.5650  -18.5370   27.9090 C.ar   57  PHE57      -0.0000
     28  N        -10.2480  -11.8390   27.4150 N.am   58  GLN58      -0.1965
     29  CA        -9.8070  -10.4620   27.6500 C.3    58  GLN58       0.1733
     30  C        -10.2260   -9.9810   29.0430 C.2    58  GLN58       0.2616
     31  O        -11.1540   -9.1790   29.1920 O.2    58  GLN58      -0.2715
     32  CB       -10.3320   -9.5390   26.5450 C.3    58  GLN58       0.0408
     33  CG        -9.6200   -9.6990   25.2050 C.3    58  GLN58       0.0908
     34  CD        -8.3520   -8.8910   25.1130 C.2    58  GLN58       0.2608
     35  OE1       -8.3540   -7.6910   25.3310 O.2    58  GLN58      -0.2717
     36  NE2       -7.2590   -9.5450   24.7760 N.am   58  GLN58      -0.0878
     37  N         -9.5460  -10.5160   30.0530 N.am   59  ILE59      -0.1963
     38  CA        -9.8330  -10.1950   31.4410 C.3    59  ILE59       0.1727
     39  C         -8.9510   -9.0430   31.9050 C.2    59  ILE59       0.2616
     40  O         -7.7410   -9.0170   31.6680 O.2    59  ILE59      -0.2715
     41  CB        -9.8230  -11.4950   32.3430 C.3    59  ILE59       0.0290
     42  CG1      -11.0770  -12.3370   32.0220 C.3    59  ILE59       0.0022
     43  CG2       -9.8510  -11.1410   33.7980 C.3    59  ILE59       0.0023
     44  CD1      -11.1730  -13.6560   32.7220 C.3    59  ILE59       0.0001
     45  N         -9.6210   -8.0410   32.4610 N.am   60  ASN60      -0.1972
     46  CA        -9.0290   -6.7950   32.9130 C.3    60  ASN60       0.1688
     47  C         -8.0970   -6.8830   34.0870 C.2    60  ASN60       0.2292
     48  O         -8.4030   -7.5380   35.0790 O.2    60  ASN60      -0.2864
     49  CB       -10.1580   -5.7920   33.1870 C.3    60  ASN60       0.1181
     50  CG        -9.6560   -4.3950   33.4320 C.2    60  ASN60       0.2629
     51  OD1       -9.5870   -3.9550   34.5670 O.2    60  ASN60      -0.2716
     52  ND2       -9.2590   -3.7110   32.3790 N.am   60  ASN60      -0.0877
     53  N         -9.4370   -5.1760   37.9110 N.3    63  LEU63      -0.1231
     54  CA       -10.3330   -5.8920   38.7920 C.3    63  LEU63       0.1693
     55  C         -9.9980   -7.3640   39.0650 C.2    63  LEU63       0.2592
     56  O         -9.9610   -7.7880   40.2180 O.2    63  LEU63      -0.2718
     57  CB       -11.7830   -5.8440   38.2680 C.3    63  LEU63       0.0284
     58  CG       -12.6440   -4.7010   37.6780 C.3    63  LEU63       0.0019
     59  CD1      -12.8020   -3.5190   38.6200 C.3    63  LEU63       0.0001
     60  CD2      -12.0910   -4.2600   36.3440 C.3    63  LEU63       0.0001
     61  N         -9.6830   -8.1270   38.0320 N.am   64  TRP64      -0.1976
     62  CA        -9.5230   -9.5560   38.2200 C.3    64  TRP64       0.1640
     63  C         -8.1830  -10.1840   38.3470 C.2    64  TRP64       0.2290
     64  O         -8.0230  -11.0500   39.1980 O.2    64  TRP64      -0.2864
     65  CB       -10.3010  -10.3020   37.1350 C.3    64  TRP64       0.0576
     66  CG       -11.5740   -9.6380   36.7810 C.ar   64  TRP64       0.0006
     67  CD1      -11.8110   -8.8580   35.6940 C.ar   64  TRP64       0.0946
     68  CD2      -12.7820   -9.6400   37.5510 C.ar   64  TRP64       0.0152
     69  NE1      -13.0910   -8.3630   35.7430 N.ar   64  TRP64      -0.2442
     70  CE2      -13.7070   -8.8320   36.8740 C.ar   64  TRP64       0.0810
     71  CE3      -13.1670  -10.2530   38.7600 C.ar   64  TRP64       0.0012
     72  CZ2      -14.9960   -8.6170   37.3600 C.ar   64  TRP64       0.0191
     73  CZ3      -14.4420  -10.0350   39.2400 C.ar   64  TRP64       0.0001
     74  CH2      -15.3400   -9.2260   38.5450 C.ar   64  TRP64       0.0015
     75  N        -15.7710  -13.8670   37.1030 N.3    99  VAL99      -0.1245
     76  CA       -16.3760  -12.6430   36.5930 C.3    99  VAL99       0.1561
     77  C        -17.8930  -12.7280   36.5030 C.2    99  VAL99       0.2260
     78  O        -18.5740  -11.8190   36.9630 O.2    99  VAL99      -0.2867
     79  CB       -15.8760  -12.2740   35.2220 C.3    99  VAL99       0.0252
     80  CG1      -16.5340  -10.9620   34.8030 C.3    99  VAL99       0.0019
     81  CG2      -14.3590  -12.1540   35.2230 C.3    99  VAL99       0.0019
     82  N        -20.1850  -12.0710   39.6030 N.3   102  ASP102     -0.1225
     83  CA       -20.4080  -10.7410   40.1700 C.3   102  ASP102      0.1790
     84  C        -21.8000  -10.2650   39.7220 C.2   102  ASP102      0.2440
     85  O        -22.3360  -10.7630   38.7280 O.2   102  ASP102     -0.2733
     86  CB       -19.3070   -9.7520   39.7440 C.3   102  ASP102      0.1423
     87  CG       -18.4220   -9.3070   40.9240 C.2   102  ASP102      0.3668
     88  OD1      -18.4700   -9.9510   42.0050 O.co2 102  ASP102     -0.2456
     89  OD2      -17.6870   -8.2990   40.7960 O.co2 102  ASP102     -0.2456
     90  N        -22.3910   -9.2660   40.4200 N.am  103  PRO103     -0.2718
     91  CA       -23.7230   -8.7580   40.0710 C.3   103  PRO103      0.1535
     92  C        -24.2020   -8.7160   38.6070 C.2   103  PRO103      0.2598
     93  O        -25.2960   -9.1830   38.3130 O.2   103  PRO103     -0.2715
     94  CB       -23.7220   -7.3680   40.7140 C.3   103  PRO103      0.0310
     95  CG       -23.0290   -7.6200   41.9900 C.3   103  PRO103      0.0237
     96  CD       -21.8270   -8.4640   41.5280 C.3   103  PRO103      0.0939
     97  N        -23.3930   -8.1590   37.7100 N.am  104  GLN104     -0.1978
     98  CA       -23.7700   -8.0050   36.2940 C.3   104  GLN104      0.1601
     99  C        -23.5140   -9.1740   35.3550 C.2   104  GLN104      0.2287
    100  O        -23.7190   -9.0470   34.1520 O.2   104  GLN104     -0.2864
    101  CB       -23.1750   -6.7170   35.6970 C.3   104  GLN104      0.0394
    102  CG       -21.6940   -6.7660   35.3850 C.3   104  GLN104      0.0908
    103  CD       -21.1570   -5.4540   34.8270 C.2   104  GLN104      0.2608
    104  OE1      -21.8990   -4.6710   34.2420 O.2   104  GLN104     -0.2717
    105  NE2      -19.8700   -5.2000   35.0380 N.am  104  GLN104     -0.0878
    106  N        -20.5650   -8.1040   31.6760 N.3   108  ALA108     -0.1231
    107  CA       -19.1920   -7.6560   31.9370 C.3   108  ALA108      0.1694
    108  C        -18.2920   -7.6580   30.6830 C.2   108  ALA108      0.2592
    109  O        -17.2220   -7.0510   30.6640 O.2   108  ALA108     -0.2718
    110  CB       -18.5750   -8.5220   33.0160 C.3   108  ALA108      0.0304
    111  N        -18.7290   -8.3430   29.6340 N.am  109  TRP109     -0.1962
    112  CA       -17.9740   -8.4230   28.3840 C.3   109  TRP109      0.1771
    113  C        -18.6640   -7.6020   27.3030 C.2   109  TRP109      0.2619
    114  O        -19.6750   -7.9990   26.7340 O.2   109  TRP109     -0.2715
    115  CB       -17.8200   -9.8680   27.9480 C.3   109  TRP109      0.0590
    116  CG       -16.8260  -10.6290   28.7640 C.ar  109  TRP109      0.0006
    117  CD1      -15.4770  -10.7290   28.5300 C.ar  109  TRP109      0.0946
    118  CD2      -17.1070  -11.5010   29.8630 C.ar  109  TRP109      0.0152
    119  NE1      -14.9100  -11.6310   29.3980 N.ar  109  TRP109     -0.2442
    120  CE2      -15.8840  -12.1270   30.2230 C.ar  109  TRP109      0.0810
    121  CE3      -18.2640  -11.8330   30.5750 C.ar  109  TRP109      0.0012
    122  CZ2      -15.8030  -13.0610   31.2540 C.ar  109  TRP109      0.0191
    123  CZ3      -18.1790  -12.7660   31.6030 C.ar  109  TRP109      0.0001
    124  CH2      -16.9630  -13.3700   31.9310 C.ar  109  TRP109      0.0015
    125  N        -18.0510   -6.4670   27.0130 N.am  110  VAL110     -0.1977
    126  CA       -18.5380   -5.4880   26.0570 C.3   110  VAL110      0.1596
    127  C        -18.8540   -6.0840   24.7040 C.2   110  VAL110      0.2287
    128  O        -19.9040   -5.7950   24.1250 O.2   110  VAL110     -0.2864
    129  CB       -17.5020   -4.3070   25.8500 C.3   110  VAL110      0.0276
    130  CG1      -18.1690   -3.1470   25.1450 C.3   110  VAL110      0.0022
    131  CG2      -16.8790   -3.8420   27.1870 C.3   110  VAL110      0.0022
@<TRIPOS>BOND
     1   128   127    2
     2   127   126    1
     3    36    34   am
     4    34    33    1
     5    34    35    2
     6   130   129    1
     7    33    32    1
     8   129   126    1
     9   129   131    1
    10   126   125    1
    11    32    29    1
    12   114   113    2
    13    17    18    1
    14   125   113   am
    15    12    11    2
    16   113   112    1
    17    26    24   ar
    18    26    27   ar
    19    28    29    1
    20    28    19   am
    21    18    19    1
    22    18    21    1
    23    29    30    1
    24    24    22   ar
    25    19    20    2
    26    27    25   ar
    27   115   112    1
    28   115   116    1
    29    13    14    1
    30    13    10    1
    31    15    14   ar
    32    11    10    1
    33   112   111    1
    34    22    21    1
    35    22    23   ar
    36   117   116   ar
    37   117   119   ar
    38    25    23   ar
    39   116   118   ar
    40    14    16   ar
    41    10     9    1
    42    30    31    2
    43    30    37   am
    44   119   120   ar
    45   111   108   am
    46   118   120   ar
    47   118   121   ar
    48    37    38    1
    49   120   122   ar
    50   121   123   ar
    51   109   108    2
    52   108   107    1
    53     1     2    1
    54   122   124   ar
    55    38    39    1
    56    38    41    1
    57     7     6   ar
    58   123   124   ar
    59    40    39    2
    60   106   107    1
    61    39    45   am
    62   107   110    1
    63    42    41    1
    64    42    44    1
    65     8     6   ar
    66     6     5    1
    67    41    43    1
    68    52    50   am
    69    45    46    1
    70     2     5    1
    71     2     3    1
    72    46    49    1
    73    46    47    1
    74     3     4    2
    75    49    50    1
    76    50    51    2
    77    47    48    2
    78   100    99    2
    79   104   103    2
    80    80    79    1
    81   103   105   am
    82   103   102    1
    83    79    81    1
    84    79    76    1
    85    99    98    1
    86   102   101    1
    87    67    69   ar
    88    67    66   ar
    89   101    98    1
    90    69    70   ar
    91    98    97    1
    92    60    58    1
    93    77    76    1
    94    77    78    2
    95    76    75    1
    96    66    65    1
    97    66    68   ar
    98    70    72   ar
    99    70    68   ar
   100    65    62    1
   101    72    74   ar
   102    68    71   ar
   103    58    57    1
   104    58    59    1
   105    97    92   am
   106    53    54    1
   107    61    62    1
   108    61    55   am
   109    62    63    1
   110    57    54    1
   111    93    92    2
   112    63    64    2
   113    74    73   ar
   114    92    91    1
   115    85    84    2
   116    71    73   ar
   117    54    55    1
   118    55    56    2
   119    82    83    1
   120    84    83    1
   121    84    90   am
   122    86    83    1
   123    86    87    1
   124    91    90    1
   125    91    94    1
   126    90    96    1
   127    94    95    1
   128    89    87   ar
   129    87    88   ar
   130    96    95    1
