@<TRIPOS>MOLECULE
tmp/1d6sB01.pdb
 118 110 0 0 0
SMALL
GASTEIGER

@<TRIPOS>ATOM
      1  N         39.8890   50.5920   11.4840 N.3    40  VAL40      -0.1231
      2  CA        39.4600   51.8580   12.0590 C.3    40  VAL40       0.1692
      3  C         38.2000   52.3460   11.3230 C.2    40  VAL40       0.2591
      4  O         37.3160   52.9610   11.9270 O.2    40  VAL40      -0.2718
      5  CB        40.6040   52.9530   11.9500 C.3    40  VAL40       0.0266
      6  CG1       40.9450   53.2490   10.4680 C.3    40  VAL40       0.0020
      7  CG2       40.1800   54.2510   12.6710 C.3    40  VAL40       0.0020
      8  N         38.1040   52.0220   10.0350 N.am   41  ALA41      -0.1980
      9  CA        36.9840   52.4510    9.2130 C.3    41  ALA41       0.1597
     10  C         35.5830   51.9710    9.6420 C.2    41  ALA41       0.2287
     11  O         34.5880   52.5710    9.2420 O.2    41  ALA41      -0.2864
     12  CB        37.2580   52.1390    7.7230 C.3    41  ALA41       0.0319
     13  N         33.3280   54.7470   10.9700 N.3    44  ILE44      -0.1245
     14  CA        32.6610   55.6470   10.0430 C.3    44  ILE44       0.1561
     15  C         31.6470   54.9940    9.1060 C.2    44  ILE44       0.2260
     16  O         30.7140   55.6590    8.6370 O.2    44  ILE44      -0.2867
     17  CB        33.6550   56.5110    9.2520 C.3    44  ILE44       0.0252
     18  CG1       34.3910   55.6870    8.1960 C.3    44  ILE44       0.0019
     19  CG2       34.5850   57.1820   10.2230 C.3    44  ILE44       0.0019
     20  CD1       35.0250   56.5380    7.0870 C.3    44  ILE44       0.0001
     21  N         36.6260   54.0350   -2.3610 N.3    68  THR68      -0.1203
     22  CA        37.4030   53.5500   -1.2200 C.3    68  THR68       0.1994
     23  C         38.7230   52.8290   -1.5630 C.2    68  THR68       0.2617
     24  O         38.9910   52.4540   -2.7170 O.2    68  THR68      -0.2717
     25  CB        36.5060   52.6320   -0.3210 C.3    68  THR68       0.1784
     26  OG1       37.2630   52.0920    0.7710 O.3    68  THR68      -0.2211
     27  CG2       35.9070   51.4920   -1.1390 C.3    68  THR68       0.0376
     28  N         39.5690   52.7160   -0.5440 N.am   69  ASN69      -0.1974
     29  CA        40.8550   52.0420   -0.6350 C.3    69  ASN69       0.1688
     30  C         40.5840   50.5740   -0.2500 C.2    69  ASN69       0.2292
     31  O         41.4130   49.6850   -0.4910 O.2    69  ASN69      -0.2864
     32  CB        41.8450   52.6860    0.3550 C.3    69  ASN69       0.1181
     33  CG        42.5120   51.6590    1.2830 C.2    69  ASN69       0.2629
     34  OD1       43.4600   50.9900    0.8660 O.2    69  ASN69      -0.2716
     35  ND2       42.0210   51.5250    2.5350 N.am   69  ASN69      -0.0877
     36  N         39.0890   49.4240    3.1870 N.3    71  ASN71      -0.1225
     37  CA        38.5160   49.3380    4.5260 C.3    71  ASN71       0.1785
     38  C         37.1830   50.0400    4.7490 C.2    71  ASN71       0.2597
     39  O         36.3370   49.5260    5.4900 O.2    71  ASN71      -0.2718
     40  CB        39.5320   49.7270    5.5960 C.3    71  ASN71       0.1169
     41  CG        40.6460   48.7110    5.7070 C.2    71  ASN71       0.2627
     42  OD1       40.4060   47.5080    5.5720 O.2    71  ASN71      -0.2716
     43  ND2       41.8750   49.1790    5.8970 N.am   71  ASN71      -0.0877
     44  N         36.9790   51.2070    4.1450 N.am   72  THR72      -0.1953
     45  CA        35.6990   51.8870    4.3030 C.3    72  THR72       0.1897
     46  C         34.6110   51.1210    3.5510 C.2    72  THR72       0.2313
     47  O         33.4720   51.0670    4.0080 O.2    72  THR72      -0.2863
     48  CB        35.7420   53.3210    3.8190 C.3    72  THR72       0.1794
     49  OG1       36.6860   54.0360    4.6130 O.3    72  THR72      -0.2208
     50  CG2       34.3790   53.9790    3.9870 C.3    72  THR72       0.0378
     51  N         44.7460   48.0220   -4.6250 N.3    95  MET95      -0.1245
     52  CA        44.5210   47.5500   -3.2580 C.3    95  MET95       0.1570
     53  C         44.5300   46.0250   -3.2050 C.2    95  MET95       0.2261
     54  O         44.2540   45.3730   -4.2190 O.2    95  MET95      -0.2867
     55  CB        43.2290   48.1550   -2.7030 C.3    95  MET95       0.0387
     56  CG        43.1480   49.6810   -2.9050 C.3    95  MET95       0.0595
     57  SD        44.6550   50.5450   -2.3640 S.3    95  MET95      -0.1393
     58  CE        44.3430   52.2500   -2.9060 C.3    95  MET95       0.0692
     59  N         43.2180   57.3360   -5.9630 N.3   119  MET119     -0.1245
     60  CA        41.9250   57.6300   -5.3470 C.3   119  MET119      0.1570
     61  C         41.0650   58.6280   -6.1270 C.2   119  MET119      0.2261
     62  O         39.8450   58.6430   -5.9720 O.2   119  MET119     -0.2867
     63  CB        42.0930   58.0890   -3.8960 C.3   119  MET119      0.0387
     64  CG        42.4720   56.9780   -2.9220 C.3   119  MET119      0.0595
     65  SD        41.3590   55.5500   -2.9840 S.3   119  MET119     -0.1393
     66  CE        39.7670   56.3150   -2.4940 C.3   119  MET119      0.0692
     67  N         33.0950   59.9610    2.0410 N.3   142  GLN142     -0.1231
     68  CA        33.9130   59.9270    3.2550 C.3   142  GLN142      0.1698
     69  C         34.9800   61.0140    3.3700 C.2   142  GLN142      0.2592
     70  O         35.4240   61.3350    4.4810 O.2   142  GLN142     -0.2718
     71  CB        34.5830   58.5560    3.3960 C.3   142  GLN142      0.0381
     72  CG        35.5230   58.1740    2.2370 C.3   142  GLN142      0.0905
     73  CD        36.3590   56.9260    2.5230 C.2   142  GLN142      0.2608
     74  OE1       36.7270   56.6600    3.6690 O.2   142  GLN142     -0.2717
     75  NE2       36.6550   56.1550    1.4820 N.am  142  GLN142     -0.0878
     76  N         35.4110   61.5460    2.2290 N.am  143  PHE143     -0.1976
     77  CA        36.4420   62.5820    2.1990 C.3   143  PHE143      0.1639
     78  C         35.9620   63.9510    2.6510 C.2   143  PHE143      0.2290
     79  O         36.7810   64.7680    3.1010 O.2   143  PHE143     -0.2864
     80  CB        37.0880   62.6630    0.8080 C.3   143  PHE143      0.0560
     81  CG        37.8890   61.4310    0.4450 C.ar  143  PHE143     -0.0200
     82  CD1       37.3340   60.4290   -0.3510 C.ar  143  PHE143     -0.0042
     83  CD2       39.1910   61.2620    0.9270 C.ar  143  PHE143     -0.0042
     84  CE1       38.0560   59.2810   -0.6660 C.ar  143  PHE143     -0.0003
     85  CE2       39.9250   60.1140    0.6200 C.ar  143  PHE143     -0.0003
     86  CZ        39.3500   59.1230   -0.1810 C.ar  143  PHE143     -0.0000
     87  N         44.4100   59.4930    5.5780 N.3   176  GLY176     -0.1210
     88  CA        43.7080   58.9760    4.4070 C.3   176  GLY176      0.1956
     89  C         42.6830   60.0510    4.0340 C.2   176  GLY176      0.2612
     90  O         42.8740   60.8050    3.0750 O.2   176  GLY176     -0.2717
     91  N         41.5980   60.1320    4.8010 N.am  177  THR177     -0.1952
     92  CA        40.5600   61.1510    4.6030 C.3   177  THR177      0.1897
     93  C         40.8100   62.2780    5.6240 C.2   177  THR177      0.2313
     94  O         40.2600   63.3620    5.5140 O.2   177  THR177     -0.2863
     95  CB        39.1630   60.5960    4.9090 C.3   177  THR177      0.1794
     96  OG1       39.1010   60.2340    6.3020 O.3   177  THR177     -0.2208
     97  CG2       38.8420   59.3930    4.0350 C.3   177  THR177      0.0378
     98  N         45.9490   52.6760    2.1990 N.3   228  GLY228     -0.1210
     99  CA        45.0970   53.2960    3.1910 C.3   228  GLY228      0.1956
    100  C         45.3510   54.7690    3.4320 C.2   228  GLY228      0.2612
    101  O         44.4180   55.4990    3.7840 O.2   228  GLY228     -0.2717
    102  N         46.6000   55.2150    3.2880 N.am  229  ILE229     -0.1965
    103  CA        46.9220   56.6200    3.5060 C.3   229  ILE229      0.1727
    104  C         47.4420   57.2270    2.2090 C.2   229  ILE229      0.2617
    105  O         47.6690   56.5080    1.2440 O.2   229  ILE229     -0.2715
    106  CB        47.9820   56.8280    4.6270 C.3   229  ILE229      0.0290
    107  CG1       49.3470   56.3300    4.1840 C.3   229  ILE229      0.0022
    108  CG2       47.5810   56.1200    5.9040 C.3   229  ILE229      0.0023
    109  CD1       50.4330   56.5620    5.2060 C.3   229  ILE229      0.0001
    110  N         47.5540   58.5510    2.1700 N.am  230  GLY230     -0.1940
    111  CA        48.0820   59.2190    0.9980 C.3   230  GLY230      0.2014
    112  C         47.2030   59.1940   -0.2310 C.2   230  GLY230      0.2638
    113  O         47.5520   58.5750   -1.2410 O.2   230  GLY230     -0.2714
    114  N         46.0990   59.9340   -0.1710 N.am  231  ALA231     -0.1977
    115  CA        45.1390   60.0010   -1.2660 C.3   231  ALA231      0.1597
    116  C         45.5870   60.8410   -2.4700 C.2   231  ALA231      0.2287
    117  O         45.0040   60.7330   -3.5440 O.2   231  ALA231     -0.2864
    118  CB        43.7940   60.4960   -0.7400 C.3   231  ALA231      0.0319
@<TRIPOS>BOND
     1    61    62    2
     2    61    60    1
     3    59    60    1
     4    60    63    1
     5    51    52    1
     6    54    53    2
     7    63    64    1
     8   117   116    2
     9    52    53    1
    10    52    55    1
    11    65    64    1
    12    65    66    1
    13    58    57    1
    14    56    55    1
    15    56    57    1
    16    24    23    2
    17   116   115    1
    18    21    22    1
    19    23    22    1
    20    23    28   am
    21   115   118    1
    22   115   114    1
    23   113   112    2
    24    22    25    1
    25    27    25    1
    26    84    82   ar
    27    84    86   ar
    28    29    28    1
    29    29    30    1
    30    29    32    1
    31    31    30    2
    32    82    81   ar
    33    25    26    1
    34   112   114   am
    35   112   111    1
    36    86    85   ar
    37    32    33    1
    38    81    80    1
    39    81    83   ar
    40    85    83   ar
    41    80    77    1
    42    34    33    2
    43   111   110    1
    44   105   104    2
    45    33    35   am
    46    75    73   am
    47    67    68    1
    48   110   104   am
    49    77    76    1
    50    77    78    1
    51    98    99    1
    52   104   103    1
    53    76    69   am
    54    72    73    1
    55    72    71    1
    56    73    74    2
    57    78    79    2
    58    90    89    2
    59    36    37    1
    60    99   100    1
    61    68    69    1
    62    68    71    1
    63   102   100   am
    64   102   103    1
    65    69    70    2
    66   100   101    2
    67   103   106    1
    68    46    47    2
    69    46    45    1
    70    48    50    1
    71    48    45    1
    72    48    49    1
    73    89    88    1
    74    89    91   am
    75    97    95    1
    76    44    45    1
    77    44    38   am
    78   107   106    1
    79   107   109    1
    80    88    87    1
    81    37    38    1
    82    37    40    1
    83    92    91    1
    84    92    95    1
    85    92    93    1
    86   106   108    1
    87    38    39    2
    88    95    96    1
    89    94    93    2
    90    42    41    2
    91    40    41    1
    92    41    43   am
    93    20    18    1
    94    12     9    1
    95    18    17    1
    96    16    15    2
    97    15    14    1
    98     9    10    1
    99     9     8    1
   100    11    10    2
   101    17    14    1
   102    17    19    1
   103     8     3   am
   104    14    13    1
   105     6     5    1
   106     3     4    2
   107     3     2    1
   108     1     2    1
   109     5     2    1
   110     5     7    1
