@<TRIPOS>MOLECULE
tmp/1d6sB00.pdb
 184 174 0 0 0
SMALL
GASTEIGER

@<TRIPOS>ATOM
      1  N         39.8890   50.5920   11.4840 N.3    40  VAL40      -0.1231
      2  CA        39.4600   51.8580   12.0590 C.3    40  VAL40       0.1692
      3  C         38.2000   52.3460   11.3230 C.2    40  VAL40       0.2591
      4  O         37.3160   52.9610   11.9270 O.2    40  VAL40      -0.2718
      5  CB        40.6040   52.9530   11.9500 C.3    40  VAL40       0.0266
      6  CG1       40.9450   53.2490   10.4680 C.3    40  VAL40       0.0020
      7  CG2       40.1800   54.2510   12.6710 C.3    40  VAL40       0.0020
      8  N         38.1040   52.0220   10.0350 N.am   41  ALA41      -0.1980
      9  CA        36.9840   52.4510    9.2130 C.3    41  ALA41       0.1597
     10  C         35.5830   51.9710    9.6420 C.2    41  ALA41       0.2287
     11  O         34.5880   52.5710    9.2420 O.2    41  ALA41      -0.2864
     12  CB        37.2580   52.1390    7.7230 C.3    41  ALA41       0.0319
     13  N         33.3280   54.7470   10.9700 N.3    44  ILE44      -0.1245
     14  CA        32.6610   55.6470   10.0430 C.3    44  ILE44       0.1561
     15  C         31.6470   54.9940    9.1060 C.2    44  ILE44       0.2260
     16  O         30.7140   55.6590    8.6370 O.2    44  ILE44      -0.2867
     17  CB        33.6550   56.5110    9.2520 C.3    44  ILE44       0.0252
     18  CG1       34.3910   55.6870    8.1960 C.3    44  ILE44       0.0019
     19  CG2       34.5850   57.1820   10.2230 C.3    44  ILE44       0.0019
     20  CD1       35.0250   56.5380    7.0870 C.3    44  ILE44       0.0001
     21  N         39.5690   52.7160   -0.5440 N.3    69  ASN69      -0.1240
     22  CA        40.8550   52.0420   -0.6350 C.3    69  ASN69       0.1653
     23  C         40.5840   50.5740   -0.2500 C.2    69  ASN69       0.2266
     24  O         41.4130   49.6850   -0.4910 O.2    69  ASN69      -0.2867
     25  CB        41.8450   52.6860    0.3550 C.3    69  ASN69       0.1155
     26  CG        42.5120   51.6590    1.2830 C.2    69  ASN69       0.2627
     27  OD1       43.4600   50.9900    0.8660 O.2    69  ASN69      -0.2716
     28  ND2       42.0210   51.5250    2.5350 N.am   69  ASN69      -0.0877
     29  N         39.0890   49.4240    3.1870 N.3    71  ASN71      -0.1225
     30  CA        38.5160   49.3380    4.5260 C.3    71  ASN71       0.1785
     31  C         37.1830   50.0400    4.7490 C.2    71  ASN71       0.2597
     32  O         36.3370   49.5260    5.4900 O.2    71  ASN71      -0.2718
     33  CB        39.5320   49.7270    5.5960 C.3    71  ASN71       0.1169
     34  CG        40.6460   48.7110    5.7070 C.2    71  ASN71       0.2627
     35  OD1       40.4060   47.5080    5.5720 O.2    71  ASN71      -0.2716
     36  ND2       41.8750   49.1790    5.8970 N.am   71  ASN71      -0.0877
     37  N         36.9790   51.2070    4.1450 N.am   72  THR72      -0.1953
     38  CA        35.6990   51.8870    4.3030 C.3    72  THR72       0.1897
     39  C         34.6110   51.1210    3.5510 C.2    72  THR72       0.2313
     40  O         33.4720   51.0670    4.0080 O.2    72  THR72      -0.2863
     41  CB        35.7420   53.3210    3.8190 C.3    72  THR72       0.1794
     42  OG1       36.6860   54.0360    4.6130 O.3    72  THR72      -0.2208
     43  CG2       34.3790   53.9790    3.9870 C.3    72  THR72       0.0378
     44  N         40.6850   42.5650    0.0370 N.3    99  ARG99      -0.1245
     45  CA        39.6560   43.5990    0.1590 C.3    99  ARG99       0.1563
     46  C         38.5540   43.2800   -0.8740 C.2    99  ARG99       0.2260
     47  O         37.3640   43.4500   -0.5960 O.2    99  ARG99      -0.2867
     48  CB        40.2430   44.9790   -0.1300 C.3    99  ARG99       0.0307
     49  CG        41.1630   45.5280    0.9410 C.3    99  ARG99       0.0489
     50  CD        42.1260   46.5730    0.3500 C.3    99  ARG99       0.2205
     51  NE        42.5800   47.5400    1.3490 N.pl3  99  ARG99      -0.0865
     52  CZ        43.4730   47.2930    2.3090 C.cat  99  ARG99       0.5346
     53  NH1       43.7980   48.2530    3.1650 N.pl3  99  ARG99       0.1354
     54  NH2       44.0770   46.1100    2.4020 N.pl3  99  ARG99       0.1354
     55  N         33.0950   59.9610    2.0410 N.3   142  GLN142     -0.1245
     56  CA        33.9130   59.9270    3.2550 C.3   142  GLN142      0.1566
     57  C         34.9800   61.0140    3.3700 C.2   142  GLN142      0.2260
     58  O         35.4240   61.3350    4.4810 O.2   142  GLN142     -0.2867
     59  CB        34.5830   58.5560    3.3960 C.3   142  GLN142      0.0367
     60  CG        35.5230   58.1740    2.2370 C.3   142  GLN142      0.0905
     61  CD        36.3590   56.9260    2.5230 C.2   142  GLN142      0.2608
     62  OE1       36.7270   56.6600    3.6690 O.2   142  GLN142     -0.2717
     63  NE2       36.6550   56.1550    1.4820 N.am  142  GLN142     -0.0878
     64  N         32.0770   61.6760    9.4040 N.3   148  ASN148     -0.1240
     65  CA        33.3240   60.9230    9.5170 C.3   148  ASN148      0.1653
     66  C         34.1040   61.4420   10.7490 C.2   148  ASN148      0.2266
     67  O         34.1940   60.7520   11.7620 O.2   148  ASN148     -0.2867
     68  CB        34.0960   61.0500    8.1930 C.3   148  ASN148      0.1155
     69  CG        35.4850   60.4500    8.2420 C.2   148  ASN148      0.2627
     70  OD1       36.0500   60.1930    9.3090 O.2   148  ASN148     -0.2716
     71  ND2       36.0590   60.2600    7.0680 N.am  148  ASN148     -0.0877
     72  N         34.8340   60.1390   15.4050 N.3   152  HIS152     -0.1241
     73  CA        36.1500   60.1200   16.0520 C.3   152  HIS152      0.1621
     74  C         36.1900   61.0940   17.2080 C.2   152  HIS152      0.2264
     75  O         36.8850   60.8660   18.2020 O.2   152  HIS152     -0.2867
     76  CB        37.2590   60.4230   15.0460 C.3   152  HIS152      0.0745
     77  CG        37.4720   59.3260   14.0560 C.ar  152  HIS152      0.0817
     78  ND1       37.8240   58.0450   14.4370 N.ar  152  HIS152     -0.2268
     79  CD2       37.3220   59.2950   12.7100 C.ar  152  HIS152      0.1154
     80  CE1       37.8760   57.2720   13.3660 C.ar  152  HIS152      0.1986
     81  NE2       37.5770   58.0070   12.3070 N.ar  152  HIS152     -0.2212
     82  N         48.9540   59.9650   13.5960 N.3   173  SER173     -0.1202
     83  CA        47.9490   59.3540   12.7440 C.3   173  SER173      0.2020
     84  C         48.2740   59.4280   11.2630 C.2   173  SER173      0.2619
     85  O         48.4850   60.5100   10.7330 O.2   173  SER173     -0.2717
     86  CB        46.5950   60.0520   12.9950 C.3   173  SER173      0.2103
     87  OG        45.6090   59.6980   12.0300 O.3   173  SER173     -0.2182
     88  N         48.2970   58.2900   10.5820 N.am  174  GLY174     -0.1942
     89  CA        48.5360   58.3080    9.1470 C.3   174  GLY174      0.2014
     90  C         47.2620   58.8260    8.4990 C.2   174  GLY174      0.2639
     91  O         46.1840   58.3200    8.7990 O.2   174  GLY174     -0.2714
     92  N         47.3750   59.7750    7.5770 N.am  175  VAL175     -0.1963
     93  CA        46.2140   60.3960    6.9340 C.3   175  VAL175      0.1727
     94  C         45.7100   59.8150    5.6030 C.2   175  VAL175      0.2617
     95  O         46.4670   59.7130    4.6250 O.2   175  VAL175     -0.2715
     96  CB        46.4630   61.9390    6.7420 C.3   175  VAL175      0.0290
     97  CG1       45.3270   62.5960    5.9520 C.3   175  VAL175      0.0023
     98  CG2       46.6210   62.6270    8.0890 C.3   175  VAL175      0.0023
     99  N         44.4100   59.4930    5.5780 N.am  176  GLY176     -0.1940
    100  CA        43.7080   58.9760    4.4070 C.3   176  GLY176      0.2014
    101  C         42.6830   60.0510    4.0340 C.2   176  GLY176      0.2640
    102  O         42.8740   60.8050    3.0750 O.2   176  GLY176     -0.2714
    103  N         41.5980   60.1320    4.8010 N.am  177  THR177     -0.1936
    104  CA        40.5600   61.1510    4.6030 C.3   177  THR177      0.2028
    105  C         40.8100   62.2780    5.6240 C.2   177  THR177      0.2643
    106  O         40.2600   63.3620    5.5140 O.2   177  THR177     -0.2714
    107  CB        39.1630   60.5960    4.9090 C.3   177  THR177      0.1808
    108  OG1       39.1010   60.2340    6.3020 O.3   177  THR177     -0.2208
    109  CG2       38.8420   59.3930    4.0350 C.3   177  THR177      0.0379
    110  N         41.5610   61.9710    6.6760 N.am  178  GLY178     -0.1939
    111  CA        41.8660   62.9580    7.6980 C.3   178  GLY178      0.2014
    112  C         40.9120   62.9330    8.8730 C.2   178  GLY178      0.2639
    113  O         41.1380   63.6150    9.8730 O.2   178  GLY178     -0.2714
    114  N         39.8800   62.1010    8.7930 N.am  179  GLY179     -0.1939
    115  CA        38.9140   62.0500    9.8640 C.3   179  GLY179      0.2014
    116  C         39.4490   61.6840   11.2390 C.2   179  GLY179      0.2640
    117  O         39.0970   62.3340   12.2430 O.2   179  GLY179     -0.2714
    118  N         40.2700   60.6360   11.3170 N.am  180  THR180     -0.1936
    119  CA        40.8070   60.2100   12.6070 C.3   180  THR180      0.2028
    120  C         41.5640   61.3370   13.2880 C.2   180  THR180      0.2642
    121  O         41.3100   61.6400   14.4600 O.2   180  THR180     -0.2714
    122  CB        41.7430   58.9800   12.4840 C.3   180  THR180      0.1808
    123  OG1       41.1090   57.9670   11.7010 O.3   180  THR180     -0.2208
    124  CG2       42.0340   58.3840   13.8730 C.3   180  THR180      0.0379
    125  N         42.4680   61.9700   12.5430 N.am  181  LEU181     -0.1977
    126  CA        43.2860   63.0620   13.0700 C.3   181  LEU181      0.1596
    127  C         42.4480   64.2750   13.4820 C.2   181  LEU181      0.2287
    128  O         42.6000   64.8000   14.5980 O.2   181  LEU181     -0.2864
    129  CB        44.3680   63.4640   12.0400 C.3   181  LEU181      0.0297
    130  CG        45.4130   64.5620   12.3520 C.3   181  LEU181      0.0022
    131  CD1       46.6670   64.3520   11.5260 C.3   181  LEU181      0.0001
    132  CD2       44.8630   65.9780   12.0970 C.3   181  LEU181      0.0001
    133  N         49.1150   51.2720    1.5880 N.3   227  GLN227     -0.1231
    134  CA        47.6600   51.1590    1.4230 C.3   227  GLN227      0.1698
    135  C         46.8530   51.7640    2.5540 C.2   227  GLN227      0.2593
    136  O         47.0620   51.4220    3.7270 O.2   227  GLN227     -0.2718
    137  CB        47.2450   49.6930    1.2530 C.3   227  GLN227      0.0381
    138  CG        47.7540   49.0710   -0.0220 C.3   227  GLN227      0.0905
    139  CD        47.1770   47.6970   -0.3000 C.2   227  GLN227      0.2608
    140  OE1       46.0330   47.4050    0.0500 O.2   227  GLN227     -0.2717
    141  NE2       47.9670   46.8470   -0.9580 N.am  227  GLN227     -0.0878
    142  N         45.9490   52.6760    2.1990 N.am  228  GLY228     -0.1942
    143  CA        45.0970   53.2960    3.1910 C.3   228  GLY228      0.2014
    144  C         45.3510   54.7690    3.4320 C.2   228  GLY228      0.2638
    145  O         44.4180   55.4990    3.7840 O.2   228  GLY228     -0.2714
    146  N         46.6000   55.2150    3.2880 N.am  229  ILE229     -0.1977
    147  CA        46.9220   56.6200    3.5060 C.3   229  ILE229      0.1596
    148  C         47.4420   57.2270    2.2090 C.2   229  ILE229      0.2287
    149  O         47.6690   56.5080    1.2440 O.2   229  ILE229     -0.2864
    150  CB        47.9820   56.8280    4.6270 C.3   229  ILE229      0.0276
    151  CG1       49.3470   56.3300    4.1840 C.3   229  ILE229      0.0022
    152  CG2       47.5810   56.1200    5.9040 C.3   229  ILE229      0.0022
    153  CD1       50.4330   56.5620    5.2060 C.3   229  ILE229      0.0001
    154  N         50.0880   50.4540    6.7690 N.3   272  SER272     -0.1217
    155  CA        49.9720   51.7700    7.3870 C.3   272  SER272      0.1889
    156  C         50.2080   51.7710    8.9070 C.2   272  SER272      0.2288
    157  O         50.4470   52.8350    9.4840 O.2   272  SER272     -0.2866
    158  CB        48.6440   52.4550    7.0150 C.3   272  SER272      0.2089
    159  OG        47.5170   51.8590    7.6400 O.3   272  SER272     -0.2183
    160  N         45.7030   51.2350   12.2400 N.3   299  PRO299     -0.2102
    161  CA        44.5290   51.0420   11.3850 C.3   299  PRO299      0.1504
    162  C         43.9460   49.6630   11.0350 C.2   299  PRO299      0.2576
    163  O         42.7240   49.4980   11.0280 O.2   299  PRO299     -0.2718
    164  CB        44.9050   51.8190   10.1170 C.3   299  PRO299      0.0282
    165  CG        45.8600   52.8360   10.5910 C.3   299  PRO299      0.0208
    166  CD        46.7170   52.0170   11.5180 C.3   299  PRO299      0.0893
    167  N         44.7910   48.6950   10.7090 N.am  300  SER300     -0.1953
    168  CA        44.3050   47.4010   10.2910 C.3   300  SER300      0.1924
    169  C         45.2700   46.2970   10.6480 C.2   300  SER300      0.2314
    170  O         46.3660   46.5560   11.1480 O.2   300  SER300     -0.2863
    171  CB        44.0550   47.4100    8.7770 C.3   300  SER300      0.2116
    172  OG        45.2360   47.7600    8.0670 O.3   300  SER300     -0.2180
    173  N         46.3890   41.5620    4.2640 N.3   305  TYR305     -0.1241
    174  CA        47.4790   41.9040    3.3350 C.3   305  TYR305      0.1605
    175  C         48.3940   40.7130    3.0260 C.2   305  TYR305      0.2264
    176  O         49.5410   40.8980    2.6070 O.2   305  TYR305     -0.2867
    177  CB        48.3500   43.0490    3.9200 C.3   305  TYR305      0.0534
    178  CG        47.5850   44.2980    4.3330 C.ar  305  TYR305     -0.0201
    179  CD1       46.9250   44.3640    5.5750 C.ar  305  TYR305     -0.0009
    180  CD2       47.5110   45.4110    3.4880 C.ar  305  TYR305     -0.0009
    181  CE1       46.2100   45.5040    5.9640 C.ar  305  TYR305      0.0417
    182  CE2       46.8010   46.5580    3.8710 C.ar  305  TYR305      0.0417
    183  CZ        46.1570   46.5950    5.1080 C.ar  305  TYR305      0.1957
    184  OH        45.4900   47.7290    5.4890 O.3   305  TYR305     -0.2866
@<TRIPOS>BOND
     1   141   139   am
     2    46    47    2
     3    46    45    1
     4    22    21    1
     5    22    23    1
     6    22    25    1
     7    24    23    2
     8   139   138    1
     9   139   140    2
    10    48    45    1
    11    48    49    1
    12   138   137    1
    13    44    45    1
    14    50    49    1
    15    50    51    1
    16    25    26    1
    17    27    26    2
    18   149   148    2
    19   137   134    1
    20    26    28   am
    21    51    52    2
    22   134   133    1
    23   134   135    1
    24    63    61   am
    25    55    56    1
    26   142   135   am
    27   142   143    1
    28   148   147    1
    29    60    61    1
    30    60    59    1
    31    52    54    1
    32    52    53    1
    33    61    62    2
    34   135   136    2
    35   176   175    2
    36   175   174    1
    37   102   101    2
    38    29    30    1
    39   143   144    1
    40    56    57    1
    41    56    59    1
    42   146   144   am
    43   146   147    1
    44   174   177    1
    45   174   173    1
    46    57    58    2
    47   144   145    2
    48   180   182   ar
    49   180   178   ar
    50   147   150    1
    51    39    40    2
    52    39    38    1
    53    41    43    1
    54    41    38    1
    55    41    42    1
    56   182   183   ar
    57   177   178    1
    58   101   100    1
    59   101   103   am
    60   109   107    1
    61    37    38    1
    62    37    31   am
    63   151   150    1
    64   151   153    1
    65   178   179   ar
    66   100    99    1
    67    30    31    1
    68    30    33    1
    69   104   103    1
    70   104   107    1
    71   104   105    1
    72    95    94    2
    73   150   152    1
    74    31    32    2
    75   107   108    1
    76   183   184    1
    77   183   181   ar
    78   106   105    2
    79    35    34    2
    80   179   181   ar
    81    99    94   am
    82    33    34    1
    83    94    93    1
    84   105   110   am
    85    34    36   am
    86    97    96    1
    87   110   111    1
    88    96    93    1
    89    96    98    1
    90   154   155    1
    91    93    92    1
    92   158   155    1
    93   158   159    1
    94    71    69   am
    95    20    18    1
    96   155   156    1
    97    92    90   am
    98   111   112    1
    99    12     9    1
   100   172   171    1
   101    68    69    1
   102    68    65    1
   103    18    17    1
   104    69    70    2
   105    90    91    2
   106    90    89    1
   107    16    15    2
   108   171   168    1
   109   114   112   am
   110   114   115    1
   111   112   113    2
   112   156   157    2
   113    15    14    1
   114    89    88    1
   115     9    10    1
   116     9     8    1
   117    11    10    2
   118    17    14    1
   119    17    19    1
   120    64    65    1
   121    65    66    1
   122   115   116    1
   123     8     3   am
   124    14    13    1
   125   164   165    1
   126   164   161    1
   127   168   169    1
   128   168   167    1
   129     6     5    1
   130    88    84   am
   131   165   166    1
   132   169   170    2
   133   167   162   am
   134    85    84    2
   135    66    67    2
   136   163   162    2
   137   162   161    1
   138   116   118   am
   139   116   117    2
   140    84    83    1
   141   118   119    1
   142     3     4    2
   143     3     2    1
   144   161   160    1
   145     1     2    1
   146   166   160    1
   147   131   130    1
   148   123   122    1
   149     5     2    1
   150     5     7    1
   151    87    86    1
   152   129   130    1
   153   129   126    1
   154   132   130    1
   155    81    79   ar
   156    81    80   ar
   157   122   119    1
   158   122   124    1
   159   125   126    1
   160   125   120   am
   161   119   120    1
   162    79    77   ar
   163    83    86    1
   164    83    82    1
   165   126   127    1
   166   120   121    2
   167    80    78   ar
   168   127   128    2
   169    77    78   ar
   170    77    76    1
   171    76    73    1
   172    72    73    1
   173    73    74    1
   174    74    75    2
