@<TRIPOS>MOLECULE
tmp/1d6uB00.pdb
 110 110 0 0 0
SMALL
GASTEIGER

@<TRIPOS>ATOM
      1  N         32.3690   27.9210    5.9010 N.3   187  PHE187     -0.1241
      2  CA        32.4000   28.5260    7.2330 C.3   187  PHE187      0.1605
      3  C         31.2810   27.9530    8.0850 C.2   187  PHE187      0.2264
      4  O         31.5030   27.5270    9.2190 O.2   187  PHE187     -0.2867
      5  CB        32.2280   30.0480    7.1530 C.3   187  PHE187      0.0534
      6  CG        33.4080   30.7750    6.5600 C.ar  187  PHE187     -0.0203
      7  CD1       33.8780   30.4590    5.2890 C.ar  187  PHE187     -0.0042
      8  CD2       34.0250   31.8050    7.2650 C.ar  187  PHE187     -0.0042
      9  CE1       34.9450   31.1580    4.7260 C.ar  187  PHE187     -0.0003
     10  CE2       35.0910   32.5130    6.7140 C.ar  187  PHE187     -0.0003
     11  CZ        35.5540   32.1890    5.4410 C.ar  187  PHE187     -0.0000
     12  N         36.7140   28.9180   13.2910 N.3   218  THR218     -0.1204
     13  CA        37.3030   29.6780   12.1890 C.3   218  THR218      0.1979
     14  C         37.9110   28.6800   11.2090 C.2   218  THR218      0.2460
     15  O         38.6550   27.7880   11.6030 O.2   218  THR218     -0.2732
     16  CB        38.4090   30.6460   12.6680 C.3   218  THR218      0.1783
     17  OG1       39.3950   29.9270   13.4130 O.3   218  THR218     -0.2211
     18  CG2       37.8210   31.7330   13.5350 C.3   218  THR218      0.0376
     19  N         37.5990   28.8290    9.9100 N.am  219  PRO219     -0.2717
     20  CA        38.0730   27.9630    8.8120 C.3   219  PRO219      0.1535
     21  C         39.4660   28.3310    8.3050 C.2   219  PRO219      0.2598
     22  O         39.6090   29.3070    7.5780 O.2   219  PRO219     -0.2715
     23  CB        37.0590   28.2280    7.6810 C.3   219  PRO219      0.0310
     24  CG        35.9020   29.0000    8.3820 C.3   219  PRO219      0.0237
     25  CD        36.6910   29.8490    9.3650 C.3   219  PRO219      0.0939
     26  N         40.4950   27.5650    8.6420 N.am  220  LEU220     -0.1978
     27  CA        41.8340   27.9170    8.1720 C.3   220  LEU220      0.1596
     28  C         42.4270   26.9200    7.1820 C.2   220  LEU220      0.2287
     29  O         42.2290   25.7080    7.3020 O.2   220  LEU220     -0.2864
     30  CB        42.7980   28.0680    9.3520 C.3   220  LEU220      0.0297
     31  CG        42.3630   28.9570   10.5200 C.3   220  LEU220      0.0022
     32  CD1       43.4360   28.8850   11.5880 C.3   220  LEU220      0.0001
     33  CD2       42.1270   30.4040   10.0810 C.3   220  LEU220      0.0001
     34  N         35.0880   37.8760   20.1310 N.3   251  TYR251     -0.1227
     35  CA        35.5280   36.5440   20.5020 C.3   251  TYR251      0.1736
     36  C         37.0240   36.3370   20.2690 C.2   251  TYR251      0.2595
     37  O         37.6330   35.4670   20.8910 O.2   251  TYR251     -0.2718
     38  CB        34.7020   35.4960   19.7440 C.3   251  TYR251      0.0548
     39  CG        34.7850   35.5640   18.2320 C.ar  251  TYR251     -0.0200
     40  CD1       35.9030   35.0910   17.5470 C.ar  251  TYR251     -0.0009
     41  CD2       33.7370   36.1010   17.4860 C.ar  251  TYR251     -0.0009
     42  CE1       35.9750   35.1480   16.1570 C.ar  251  TYR251      0.0417
     43  CE2       33.7970   36.1660   16.0970 C.ar  251  TYR251      0.0417
     44  CZ        34.9190   35.6880   15.4370 C.ar  251  TYR251      0.1957
     45  OH        34.9810   35.7580   14.0610 O.3   251  TYR251     -0.2866
     46  N         37.6160   37.1430   19.3900 N.am  252  TRP252     -0.1976
     47  CA        39.0450   37.0280   19.1080 C.3   252  TRP252      0.1640
     48  C         39.8680   37.2050   20.3800 C.2   252  TRP252      0.2290
     49  O         41.0200   36.7760   20.4510 O.2   252  TRP252     -0.2864
     50  CB        39.4960   38.0810   18.0890 C.3   252  TRP252      0.0576
     51  CG        38.7870   38.0080   16.7830 C.ar  252  TRP252      0.0006
     52  CD1       37.7180   38.7550   16.3860 C.ar  252  TRP252      0.0946
     53  CD2       39.0540   37.0880   15.7150 C.ar  252  TRP252      0.0152
     54  NE1       37.3000   38.3600   15.1370 N.ar  252  TRP252     -0.2442
     55  CE2       38.1010   37.3380   14.7040 C.ar  252  TRP252      0.0810
     56  CE3       40.0020   36.0780   15.5190 C.ar  252  TRP252      0.0012
     57  CZ2       38.0710   36.6130   13.5070 C.ar  252  TRP252      0.0191
     58  CZ3       39.9730   35.3560   14.3280 C.ar  252  TRP252      0.0001
     59  CH2       39.0110   35.6290   13.3390 C.ar  252  TRP252      0.0015
     60  N         48.3800   32.5780    5.6310 N.3   376  TYR376     -0.1241
     61  CA        47.2780   32.9720    4.7610 C.3   376  TYR376      0.1605
     62  C         47.5520   33.6590    3.4230 C.2   376  TYR376      0.2264
     63  O         48.4180   34.5280    3.3090 O.2   376  TYR376     -0.2867
     64  CB        46.3130   33.8480    5.5530 C.3   376  TYR376      0.0534
     65  CG        45.9460   33.2570    6.8890 C.ar  376  TYR376     -0.0201
     66  CD1       45.4350   31.9630    6.9800 C.ar  376  TYR376     -0.0009
     67  CD2       46.1120   33.9860    8.0640 C.ar  376  TYR376     -0.0009
     68  CE1       45.0990   31.4100    8.2100 C.ar  376  TYR376      0.0417
     69  CE2       45.7780   33.4430    9.3010 C.ar  376  TYR376      0.0417
     70  CZ        45.2730   32.1550    9.3650 C.ar  376  TYR376      0.1957
     71  OH        44.9450   31.6080   10.5840 O.3   376  TYR376     -0.2866
     72  N         45.0710   35.3740    1.5790 N.3   378  ASP378     -0.1239
     73  CA        43.7330   35.9530    1.6020 C.3   378  ASP378      0.1674
     74  C         42.9640   36.0740    0.2900 C.2   378  ASP378      0.2266
     75  O         41.8100   35.6550    0.2190 O.2   378  ASP378     -0.2867
     76  CB        43.7830   37.3080    2.3140 C.3   378  ASP378      0.1410
     77  CG        44.2410   37.1810    3.7580 C.2   378  ASP378      0.3668
     78  OD1       43.6210   36.3990    4.5120 O.co2 378  ASP378     -0.2456
     79  OD2       45.2160   37.8550    4.1440 O.co2 378  ASP378     -0.2456
     80  N         40.5930   32.9200   -0.1220 N.3   382  TYR382     -0.1241
     81  CA        39.3160   33.4080    0.3690 C.3   382  TYR382      0.1605
     82  C         38.5220   34.3000   -0.5730 C.2   382  TYR382      0.2264
     83  O         37.3010   34.3850   -0.4480 O.2   382  TYR382     -0.2867
     84  CB        39.4960   34.0990    1.7220 C.3   382  TYR382      0.0534
     85  CG        39.9640   33.1490    2.7990 C.ar  382  TYR382     -0.0201
     86  CD1       41.3000   32.7680    2.8870 C.ar  382  TYR382     -0.0009
     87  CD2       39.0530   32.5670    3.6830 C.ar  382  TYR382     -0.0009
     88  CE1       41.7230   31.8260    3.8270 C.ar  382  TYR382      0.0417
     89  CE2       39.4610   31.6250    4.6240 C.ar  382  TYR382      0.0417
     90  CZ        40.7990   31.2580    4.6910 C.ar  382  TYR382      0.1957
     91  OH        41.2160   30.3300    5.6200 O.3   382  TYR382     -0.2866
     92  N         39.0080   39.7530    5.7500 N.3   458  VAL458     -0.1231
     93  CA        39.0580   38.2980    5.7210 C.3   458  VAL458      0.1692
     94  C         39.2970   37.7850    7.1380 C.2   458  VAL458      0.2593
     95  O         40.4380   37.6640    7.5840 O.2   458  VAL458     -0.2718
     96  CB        40.1950   37.8160    4.7890 C.3   458  VAL458      0.0266
     97  CG1       40.1030   36.3070    4.5820 C.3   458  VAL458      0.0020
     98  CG2       40.1220   38.5560    3.4610 C.3   458  VAL458      0.0020
     99  N         38.2120   37.5030    7.8520 N.am  459  GLY459     -0.1942
    100  CA        38.3390   37.0240    9.2180 C.3   459  GLY459      0.2014
    101  C         38.5450   38.1620   10.2030 C.2   459  GLY459      0.2638
    102  O         37.6380   38.9630   10.4320 O.2   459  GLY459     -0.2714
    103  N         39.7420   38.2380   10.7810 N.am  460  ASN460     -0.1972
    104  CA        40.0690   39.2760   11.7570 C.3   460  ASN460      0.1688
    105  C         40.8080   40.4670   11.1560 C.2   460  ASN460      0.2292
    106  O         40.8680   41.5290   11.7690 O.2   460  ASN460     -0.2864
    107  CB        40.9190   38.6920   12.8900 C.3   460  ASN460      0.1181
    108  CG        42.1620   37.9960   12.3790 C.2   460  ASN460      0.2629
    109  OD1       42.0710   36.9910   11.6830 O.2   460  ASN460     -0.2716
    110  ND2       43.3290   38.5340   12.7090 N.am  460  ASN460     -0.0877
@<TRIPOS>BOND
     1    82    83    2
     2    82    81    1
     3    80    81    1
     4    75    74    2
     5    74    73    1
     6    81    84    1
     7    72    73    1
     8    73    76    1
     9    84    85    1
    10    76    77    1
    11    85    86   ar
    12    85    87   ar
    13    86    88   ar
    14    63    62    2
    15    62    61    1
    16    98    96    1
    17    87    89   ar
    18    77    79   ar
    19    77    78   ar
    20    88    90   ar
    21    97    96    1
    22    89    90   ar
    23    90    91    1
    24     9     7   ar
    25     9    11   ar
    26    61    64    1
    27    61    60    1
    28    96    93    1
    29     7     6   ar
    30    11    10   ar
    31    64    65    1
    32    93    92    1
    33    93    94    1
    34     1     2    1
    35     6     5    1
    36     6     8   ar
    37    10     8   ar
    38    65    66   ar
    39    65    67   ar
    40    66    68   ar
    41    94    95    2
    42    94    99   am
    43     5     2    1
    44    28    29    2
    45    28    27    1
    46     2     3    1
    47    22    21    2
    48    23    24    1
    49    23    20    1
    50    99   100    1
    51    67    69   ar
    52     3     4    2
    53    27    26    1
    54    27    30    1
    55    68    70   ar
    56    21    26   am
    57    21    20    1
    58    24    25    1
    59    20    19    1
    60   100   101    1
    61    69    70   ar
    62    30    31    1
    63    70    71    1
    64    25    19    1
    65    19    14   am
    66    33    31    1
    67   101   102    2
    68   101   103   am
    69    31    32    1
    70   103   104    1
    71   105   104    1
    72   105   106    2
    73    14    15    2
    74    14    13    1
    75   109   108    2
    76   104   107    1
    77    13    16    1
    78    13    12    1
    79   108   110   am
    80   108   107    1
    81    16    17    1
    82    16    18    1
    83    59    57   ar
    84    59    58   ar
    85    57    55   ar
    86    45    44    1
    87    58    56   ar
    88    55    54   ar
    89    55    53   ar
    90    54    52   ar
    91    44    43   ar
    92    44    42   ar
    93    56    53   ar
    94    53    51   ar
    95    43    41   ar
    96    42    40   ar
    97    52    51   ar
    98    51    50    1
    99    41    39   ar
   100    40    39   ar
   101    50    47    1
   102    39    38    1
   103    47    46    1
   104    47    48    1
   105    46    36   am
   106    38    35    1
   107    34    35    1
   108    36    35    1
   109    36    37    2
   110    48    49    2
