@<TRIPOS>MOLECULE
tmp/1d6vB00.pdb
 115 113 0 0 0
SMALL
GASTEIGER

@<TRIPOS>ATOM
      1  N         16.4500    7.8490   -3.3340 N.3    35  GLU35      -0.1245
      2  CA        16.2800    8.4900   -2.0350 C.3    35  GLU35       0.1567
      3  C         16.9360    7.6610   -0.9030 C.2    35  GLU35       0.2260
      4  O         16.9020    6.4220   -0.9350 O.2    35  GLU35      -0.2867
      5  CB        14.8000    8.5560   -1.7270 C.3    35  GLU35       0.0388
      6  CG        13.9790    9.1230   -2.8870 C.3    35  GLU35       0.1160
      7  CD        14.2950   10.5330   -3.1470 C.2    35  GLU35       0.3649
      8  OE1       14.2820   11.3850   -2.2110 O.co2  35  GLU35      -0.2457
      9  OE2       14.5590   10.8190   -4.3100 O.co2  35  GLU35      -0.2457
     10  N         17.0820    7.1170    3.3170 N.3    37  VAL37      -0.1245
     11  CA        16.3820    7.3960    4.5430 C.3    37  VAL37       0.1561
     12  C         16.9730    6.6400    5.7510 C.2    37  VAL37       0.2260
     13  O         17.3670    5.5010    5.6330 O.2    37  VAL37      -0.2867
     14  CB        14.8490    6.9740    4.3300 C.3    37  VAL37       0.0252
     15  CG1       14.0640    7.0420    5.6780 C.3    37  VAL37       0.0019
     16  CG2       14.1420    7.9560    3.2970 C.3    37  VAL37       0.0019
     17  N         14.9150   11.9660    6.3800 N.3    47  TRP47      -0.1241
     18  CA        15.3840   11.9670    4.9840 C.3    47  TRP47       0.1605
     19  C         16.8510   12.4340    4.9780 C.2    47  TRP47       0.2264
     20  O         17.1940   13.4910    5.5970 O.2    47  TRP47      -0.2867
     21  CB        14.5420   12.9520    4.1500 C.3    47  TRP47       0.0550
     22  CG        14.8090   12.8990    2.6540 C.ar   47  TRP47       0.0003
     23  CD1       14.4080   11.9240    1.7420 C.ar   47  TRP47       0.0946
     24  CD2       15.4410   13.9320    1.8740 C.ar   47  TRP47       0.0152
     25  NE1       14.7580   12.3210    0.4540 N.ar   47  TRP47      -0.2442
     26  CE2       15.3810   13.5370    0.5200 C.ar   47  TRP47       0.0810
     27  CE3       16.0420   15.1530    2.2050 C.ar   47  TRP47       0.0012
     28  CZ2       15.9090   14.3270   -0.5290 C.ar   47  TRP47       0.0191
     29  CZ3       16.6050   15.9570    1.1310 C.ar   47  TRP47       0.0001
     30  CH2       16.5120   15.5120   -0.2020 C.ar   47  TRP47       0.0015
     31  N         19.1060   12.5540   -1.8220 N.3    50  GLU50      -0.1245
     32  CA        18.7570   11.7360   -2.9470 C.3    50  GLU50       0.1567
     33  C         19.7800   12.0280   -4.0040 C.2    50  GLU50       0.2260
     34  O         20.5360   13.0230   -3.9200 O.2    50  GLU50      -0.2867
     35  CB        17.3350   12.1390   -3.5260 C.3    50  GLU50       0.0388
     36  CG        17.2170   13.6610   -3.8740 C.3    50  GLU50       0.1160
     37  CD        15.9540   14.0780   -4.6390 C.2    50  GLU50       0.3649
     38  OE1       15.1000   13.1910   -4.9700 O.co2  50  GLU50      -0.2457
     39  OE2       15.8510   15.2990   -4.9650 O.co2  50  GLU50      -0.2457
     40  N         15.3640    4.0520   -1.6360 N.3    97  ALA97      -0.1231
     41  CA        14.0090    3.9180   -2.2120 C.3    97  ALA97       0.1694
     42  C         14.0690    4.6390   -3.6010 C.2    97  ALA97       0.2592
     43  O         14.9070    5.5460   -3.8230 O.2    97  ALA97      -0.2718
     44  CB        12.9690    4.6240   -1.2410 C.3    97  ALA97       0.0304
     45  N         13.2850    4.1600   -4.5360 N.am   98  ARG98      -0.1966
     46  CA        13.2390    4.7900   -5.8490 C.3    98  ARG98       0.1729
     47  C         12.1590    5.8520   -5.8590 C.2    98  ARG98       0.2617
     48  O         11.0130    5.5630   -5.6050 O.2    98  ARG98      -0.2715
     49  CB        12.9270    3.8050   -6.9610 C.3    98  ARG98       0.0348
     50  CG        13.1990    4.4040   -8.3680 C.3    98  ARG98       0.0492
     51  CD        12.7050    3.4380   -9.4220 C.3    98  ARG98       0.2205
     52  NE        11.2520    3.5100   -9.5770 N.pl3  98  ARG98      -0.0865
     53  CZ        10.5700    2.9780  -10.6080 C.cat  98  ARG98       0.5346
     54  NH1       11.2170    2.3210  -11.5670 N.pl3  98  ARG98       0.1354
     55  NH2        9.2360    3.1440  -10.7170 N.pl3  98  ARG98       0.1354
     56  N         12.5570    7.0910   -6.1340 N.am   99  GLY99      -0.1940
     57  CA        11.5920    8.1560   -6.1870 C.3    99  GLY99       0.2014
     58  C         11.0280    8.4160   -7.5760 C.2    99  GLY99       0.2638
     59  O         10.6690    7.4930   -8.3190 O.2    99  GLY99      -0.2714
     60  N         11.0090    9.6920   -7.9430 N.am  100  HIS100     -0.1973
     61  CA        10.4320   10.0870   -9.1910 C.3   100  HIS100      0.1656
     62  C         11.3560   10.1680  -10.3720 C.2   100  HIS100      0.2291
     63  O         12.5900   10.2360  -10.2410 O.2   100  HIS100     -0.2864
     64  CB         9.6810   11.4070   -9.0070 C.3   100  HIS100      0.0771
     65  CG        10.4750   12.6320   -9.3760 C.ar  100  HIS100      0.0820
     66  ND1       11.3980   13.2190   -8.5170 N.ar  100  HIS100     -0.2267
     67  CD2       10.4880   13.3650  -10.5160 C.ar  100  HIS100      0.1154
     68  CE1       11.9440   14.2600   -9.1250 C.ar  100  HIS100      0.1986
     69  NE2       11.4160   14.3720  -10.3370 N.ar  100  HIS100     -0.2212
     70  N         11.5610   11.9070  -14.4810 N.3   102  TYR102     -0.1241
     71  CA        11.0910   12.9540  -15.3900 C.3   102  TYR102      0.1605
     72  C          9.7050   12.6220  -15.9950 C.2   102  TYR102      0.2264
     73  O          8.7640   13.4130  -15.8630 O.2   102  TYR102     -0.2867
     74  CB        12.1140   13.1340  -16.5310 C.3   102  TYR102      0.0534
     75  CG        11.8050   14.2600  -17.5070 C.ar  102  TYR102     -0.0201
     76  CD1       11.3940   15.5130  -17.0420 C.ar  102  TYR102     -0.0009
     77  CD2       11.9740   14.0950  -18.8900 C.ar  102  TYR102     -0.0009
     78  CE1       11.1590   16.5770  -17.9160 C.ar  102  TYR102      0.0417
     79  CE2       11.7450   15.1630  -19.7730 C.ar  102  TYR102      0.0417
     80  CZ        11.3360   16.4010  -19.2640 C.ar  102  TYR102      0.1957
     81  OH        11.0850   17.4720  -20.0850 O.3   102  TYR102     -0.2866
     82  N          6.0150    8.5280  -12.5890 N.3   105  TYR105     -0.1241
     83  CA         5.9860    8.4550  -11.1340 C.3   105  TYR105      0.1605
     84  C          4.5990    7.8750  -10.6920 C.2   105  TYR105      0.2264
     85  O          3.5530    8.2500  -11.2320 O.2   105  TYR105     -0.2867
     86  CB         6.1990    9.8640  -10.5350 C.3   105  TYR105      0.0534
     87  CG         5.8880    9.9240   -9.0560 C.ar  105  TYR105     -0.0201
     88  CD1        6.5750    9.1300   -8.1410 C.ar  105  TYR105     -0.0009
     89  CD2        4.8880   10.7570   -8.5780 C.ar  105  TYR105     -0.0009
     90  CE1        6.2670    9.1640   -6.7750 C.ar  105  TYR105      0.0417
     91  CE2        4.5760   10.8070   -7.2200 C.ar  105  TYR105      0.0417
     92  CZ         5.2650   10.0140   -6.3270 C.ar  105  TYR105      0.1957
     93  OH         4.9760   10.1200   -4.9760 O.3   105  TYR105     -0.2866
     94  N          6.5840    4.5550   -4.6950 N.3   108  ASP108     -0.1239
     95  CA         7.9810    4.1730   -4.5250 C.3   108  ASP108      0.1674
     96  C          8.2190    2.6740   -4.3100 C.2   108  ASP108      0.2266
     97  O          7.3350    1.8680   -3.9570 O.2   108  ASP108     -0.2867
     98  CB         8.6890    4.9420   -3.3970 C.3   108  ASP108      0.1410
     99  CG         8.2320    6.3930   -3.2750 C.2   108  ASP108      0.3668
    100  OD1        7.3500    6.6800   -2.4200 O.co2 108  ASP108     -0.2456
    101  OD2        8.7530    7.2680   -4.0090 O.co2 108  ASP108     -0.2456
    102  N         10.9110    0.4990   -2.2700 N.3   110  TRP110     -0.1241
    103  CA        11.7870    0.6260   -1.1320 C.3   110  TRP110      0.1605
    104  C         12.7850   -0.5450   -1.0790 C.2   110  TRP110      0.2264
    105  O         12.4580   -1.6670   -1.4440 O.2   110  TRP110     -0.2867
    106  CB        10.9580    0.6080    0.1550 C.3   110  TRP110      0.0550
    107  CG        10.3030    1.9190    0.5490 C.ar  110  TRP110      0.0003
    108  CD1        9.1370    2.3790    0.0930 C.ar  110  TRP110      0.0946
    109  CD2       10.7890    2.9020    1.4920 C.ar  110  TRP110      0.0152
    110  NE1        8.8270    3.5950    0.6750 N.ar  110  TRP110     -0.2442
    111  CE2        9.8370    3.9360    1.5390 C.ar  110  TRP110      0.0810
    112  CE3       11.9340    2.9910    2.3320 C.ar  110  TRP110      0.0012
    113  CZ2        9.9750    5.0530    2.3730 C.ar  110  TRP110      0.0191
    114  CZ3       12.0650    4.0670    3.1690 C.ar  110  TRP110      0.0001
    115  CH2       11.0870    5.0970    3.1810 C.ar  110  TRP110      0.0015
@<TRIPOS>BOND
     1    81    80    1
     2    79    80   ar
     3    79    77   ar
     4    80    78   ar
     5    77    75   ar
     6    78    76   ar
     7    75    76   ar
     8    75    74    1
     9    74    71    1
    10    72    73    2
    11    72    71    1
    12    71    70    1
    13    82    83    1
    14    54    53    1
    15    85    84    2
    16    83    84    1
    17    83    86    1
    18    55    53    1
    19    53    52    2
    20    86    87    1
    21    67    69   ar
    22    67    65   ar
    23    62    63    2
    24    62    61    1
    25    69    68   ar
    26    52    51    1
    27    51    50    1
    28    65    64    1
    29    65    66   ar
    30    61    64    1
    31    61    60    1
    32    68    66   ar
    33    87    89   ar
    34    87    88   ar
    35    89    91   ar
    36    50    49    1
    37    59    58    2
    38    88    90   ar
    39    60    58   am
    40    58    57    1
    41    91    92   ar
    42    49    46    1
    43    90    92   ar
    44    92    93    1
    45    57    56    1
    46    56    47   am
    47    47    46    1
    48    47    48    2
    49    46    45    1
    50    38    37   ar
    51    39    37   ar
    52    94    95    1
    53    37    36    1
    54    45    42   am
    55    95    96    1
    56    95    98    1
    57     9     7   ar
    58    96    97    2
    59   101    99   ar
    60    33    34    2
    61    33    32    1
    62    36    35    1
    63    43    42    2
    64    42    41    1
    65    35    32    1
    66    98    99    1
    67     1     2    1
    68    99   100   ar
    69     7     6    1
    70     7     8   ar
    71    32    31    1
    72     6     5    1
    73   102   103    1
    74    41    40    1
    75    41    44    1
    76     2     5    1
    77     2     3    1
    78   105   104    2
    79   103   104    1
    80   103   106    1
    81     4     3    2
    82    28    30   ar
    83    28    26   ar
    84    30    29   ar
    85   108   107   ar
    86   108   110   ar
    87   106   107    1
    88    25    26   ar
    89    25    23   ar
    90    26    24   ar
    91   107   109   ar
    92   110   111   ar
    93    29    27   ar
    94   109   111   ar
    95   109   112   ar
    96   111   113   ar
    97    23    22   ar
    98    24    27   ar
    99    24    22   ar
   100   112   114   ar
   101   113   115   ar
   102    22    21    1
   103   114   115   ar
   104    16    14    1
   105    10    11    1
   106    21    18    1
   107    14    11    1
   108    14    15    1
   109    11    12    1
   110    19    18    1
   111    19    20    2
   112    18    17    1
   113    13    12    2
