@<TRIPOS>MOLECULE
tmp/1d6wA01.pdb
 227 229 0 0 0
SMALL
GASTEIGER

@<TRIPOS>ATOM
      1  N         22.4010   -7.0300   18.3880 N.3    71  HIS71      -0.1241
      2  CA        22.2290   -8.4410   17.9780 C.3    71  HIS71       0.1621
      3  C         21.4380   -8.5260   16.6740 C.2    71  HIS71       0.2264
      4  O         21.2750   -9.6090   16.0930 O.2    71  HIS71      -0.2867
      5  CB        21.5440   -9.2620   19.0860 C.3    71  HIS71       0.0745
      6  CG        20.0110   -9.1440   19.1540 C.ar   71  HIS71       0.0817
      7  ND1       19.3820   -8.3580   20.1150 N.ar   71  HIS71      -0.2268
      8  CD2       19.0080   -9.7060   18.4180 C.ar   71  HIS71       0.1154
      9  CE1       18.0760   -8.4610   19.9480 C.ar   71  HIS71       0.1986
     10  NE2       17.8360   -9.2600   18.9410 N.ar   71  HIS71      -0.2212
     11  N         25.8150  -11.1560   15.5430 N.3    75  TYR75      -0.1241
     12  CA        25.6330  -12.3010   16.4320 C.3    75  TYR75       0.1605
     13  C         26.4170  -13.4690   15.8700 C.2    75  TYR75       0.2264
     14  O         25.8520  -14.3570   15.2100 O.2    75  TYR75      -0.2867
     15  CB        24.1740  -12.6780   16.5850 C.3    75  TYR75       0.0534
     16  CG        24.0130  -13.5550   17.8090 C.ar   75  TYR75      -0.0201
     17  CD1       24.3660  -13.0450   19.0600 C.ar   75  TYR75      -0.0009
     18  CD2       23.5460  -14.8590   17.6750 C.ar   75  TYR75      -0.0009
     19  CE1       24.2640  -13.8540   20.1890 C.ar   75  TYR75       0.0417
     20  CE2       23.4490  -15.6730   18.8050 C.ar   75  TYR75       0.0417
     21  CZ        23.8110  -15.1700   20.0610 C.ar   75  TYR75       0.1957
     22  OH        23.7240  -15.9660   21.1570 O.3    75  TYR75      -0.2866
     23  N         25.5310  -17.2520   15.3350 N.3    78  TRP78      -0.1241
     24  CA        24.5150  -17.5600   14.2930 C.3    78  TRP78       0.1605
     25  C         24.9740  -17.0430   12.9280 C.2    78  TRP78       0.2264
     26  O         24.1780  -16.9530   11.9780 O.2    78  TRP78      -0.2867
     27  CB        23.1730  -16.9060   14.6210 C.3    78  TRP78       0.0550
     28  CG        22.4640  -17.5440   15.8160 C.ar   78  TRP78       0.0003
     29  CD1       22.8110  -18.6660   16.4630 C.ar   78  TRP78       0.0946
     30  CD2       21.3030  -17.0240   16.4350 C.ar   78  TRP78       0.0152
     31  NE1       21.8630  -18.8500   17.5210 N.ar   78  TRP78      -0.2442
     32  CE2       20.9910  -17.8710   17.4900 C.ar   78  TRP78       0.0810
     33  CE3       20.5020  -15.9030   16.1970 C.ar   78  TRP78       0.0012
     34  CZ2       19.9090  -17.6510   18.3510 C.ar   78  TRP78       0.0191
     35  CZ3       19.4120  -15.6930   17.0650 C.ar   78  TRP78       0.0001
     36  CH2       19.1320  -16.5250   18.0920 C.ar   78  TRP78       0.0015
     37  N         28.1660  -10.3370   23.1370 N.3   120  TRP120     -0.1241
     38  CA        27.4280  -11.3770   22.3800 C.3   120  TRP120      0.1605
     39  C         27.8520  -12.7840   22.8040 C.2   120  TRP120      0.2264
     40  O         27.1700  -13.7750   22.5100 O.2   120  TRP120     -0.2867
     41  CB        27.6520  -11.2800   20.8630 C.3   120  TRP120      0.0550
     42  CG        29.1220  -11.2310   20.4380 C.ar  120  TRP120      0.0003
     43  CD1       29.8420  -10.1300   20.2180 C.ar  120  TRP120      0.0946
     44  CD2       29.9640  -12.3610   20.2040 C.ar  120  TRP120      0.0152
     45  NE1       31.1490  -10.5480   19.8310 N.ar  120  TRP120     -0.2442
     46  CE2       31.2010  -11.8590   19.8220 C.ar  120  TRP120      0.0810
     47  CE3       29.7880  -13.7510   20.2740 C.ar  120  TRP120      0.0012
     48  CZ2       32.2920  -12.6720   19.4830 C.ar  120  TRP120      0.0191
     49  CZ3       30.8950  -14.5640   19.9420 C.ar  120  TRP120      0.0001
     50  CH2       32.0870  -14.0470   19.5630 C.ar  120  TRP120      0.0015
     51  N         28.0010  -13.8840   25.8290 N.3   122  GLU122     -0.1231
     52  CA        27.3470  -14.4050   27.0320 C.3   122  GLU122      0.1699
     53  C         25.8810  -13.9880   27.2010 C.2   122  GLU122      0.2592
     54  O         24.9620  -14.8120   27.1200 O.2   122  GLU122     -0.2718
     55  CB        28.1380  -13.9530   28.2470 C.3   122  GLU122      0.0402
     56  CG        27.6250  -14.4900   29.5770 C.3   122  GLU122      0.1161
     57  CD        28.3330  -13.8190   30.7500 C.2   122  GLU122      0.3649
     58  OE1       29.4040  -13.1250   30.5410 O.co2 122  GLU122     -0.2457
     59  OE2       27.8570  -13.9390   31.9360 O.co2 122  GLU122     -0.2457
     60  N         25.6190  -12.7120   27.4470 N.am  123  ASN123     -0.1960
     61  CA        24.2360  -12.3300   27.7820 C.3   123  ASN123      0.1819
     62  C         23.6740  -11.1070   27.0440 C.2   123  ASN123      0.2621
     63  O         22.7170  -10.4740   27.5150 O.2   123  ASN123     -0.2715
     64  CB        24.1370  -12.0340   29.2790 C.3   123  ASN123      0.1195
     65  CG        25.1570  -11.0030   29.7830 C.2   123  ASN123      0.2630
     66  OD1       25.9860  -10.5170   29.0150 O.2   123  ASN123     -0.2716
     67  ND2       25.1350  -10.6330   31.0510 N.am  123  ASN123     -0.0877
     68  N         24.2360  -10.7860   25.9020 N.am  124  LEU124     -0.1977
     69  CA        23.7460   -9.6510   25.0910 C.3   124  LEU124      0.1596
     70  C         23.7720   -8.3410   25.8950 C.2   124  LEU124      0.2287
     71  O         22.9710   -7.4250   25.6620 O.2   124  LEU124     -0.2864
     72  CB        22.2780   -9.8730   24.6770 C.3   124  LEU124      0.0297
     73  CG        22.0700  -10.9290   23.5810 C.3   124  LEU124      0.0022
     74  CD1       20.7880  -10.6990   22.7640 C.3   124  LEU124      0.0001
     75  CD2       23.2050  -10.9780   22.5600 C.3   124  LEU124      0.0001
     76  N         20.1830  -16.6740   32.9970 N.3   200  ILE200     -0.1245
     77  CA        21.2210  -15.8280   32.3930 C.3   200  ILE200      0.1561
     78  C         21.5250  -14.6940   33.3690 C.2   200  ILE200      0.2260
     79  O         20.6710  -14.2870   34.1700 O.2   200  ILE200     -0.2867
     80  CB        20.7230  -15.3900   31.0070 C.3   200  ILE200      0.0252
     81  CG1       20.8000  -16.5840   30.0350 C.3   200  ILE200      0.0019
     82  CG2       21.5240  -14.2280   30.4070 C.3   200  ILE200      0.0019
     83  CD1       20.8080  -16.1920   28.5590 C.3   200  ILE200      0.0001
     84  N          3.8650   -9.7230   24.9600 N.3   220  ASP220     -0.1225
     85  CA         5.3330   -9.8060   24.8800 C.3   220  ASP220      0.1805
     86  C          5.7570   -9.4890   23.4370 C.2   220  ASP220      0.2598
     87  O          4.9260   -9.4420   22.5280 O.2   220  ASP220     -0.2718
     88  CB         5.7540  -11.1910   25.4010 C.3   220  ASP220      0.1424
     89  CG         7.1520  -11.3320   25.9140 C.2   220  ASP220      0.3668
     90  OD1        7.5510  -12.4320   26.3630 O.co2 220  ASP220     -0.2456
     91  OD2        7.9160  -10.3700   25.9430 O.co2 220  ASP220     -0.2456
     92  N          7.0050   -9.1180   23.3270 N.am  221  ALA221     -0.1966
     93  CA         7.7340   -8.9630   22.0880 C.3   221  ALA221      0.1728
     94  C          7.9290  -10.4300   21.6040 C.2   221  ALA221      0.2616
     95  O          7.7160  -11.4060   22.3740 O.2   221  ALA221     -0.2715
     96  CB         9.0370   -8.2330   22.3400 C.3   221  ALA221      0.0334
     97  N          8.3220  -10.5730   20.3510 N.am  222  CYS222     -0.1954
     98  CA         8.5540  -11.9380   19.8270 C.3   222  CYS222      0.1843
     99  C          9.5460  -11.7210   18.6790 C.2   222  CYS222      0.2625
    100  O          9.9690  -10.5750   18.4350 O.2   222  CYS222     -0.2714
    101  CB         7.3070  -12.6720   19.4040 C.3   222  CYS222      0.0997
    102  SG         7.3880  -14.4820   19.2690 S.3   222  CYS222     -0.0797
    103  N          9.7870  -12.8440   18.0430 N.am  223  GLU223     -0.1963
    104  CA        10.6880  -12.8290   16.8910 C.3   223  GLU223      0.1733
    105  C         10.3030  -11.7490   15.8930 C.2   223  GLU223      0.2616
    106  O          9.1720  -11.7410   15.3950 O.2   223  GLU223     -0.2715
    107  CB        10.5690  -14.1840   16.1600 C.3   223  GLU223      0.0429
    108  CG        11.8940  -14.8140   15.8100 C.3   223  GLU223      0.1163
    109  CD        12.1610  -15.1370   14.3840 C.2   223  GLU223      0.3649
    110  OE1       11.5410  -16.0080   13.7710 O.co2 223  GLU223     -0.2457
    111  OE2       13.1320  -14.4560   13.9390 O.co2 223  GLU223     -0.2457
    112  N         11.3210  -11.0440   15.3970 N.am  224  GLY224     -0.1955
    113  CA        11.1380   -9.9570   14.4370 C.3   224  GLY224      0.1869
    114  C         10.8870   -8.5950   15.0630 C.2   224  GLY224      0.2309
    115  O         10.9430   -7.6010   14.2750 O.2   224  GLY224     -0.2863
    116  N         12.7340   -7.5300   17.7260 N.3   226  SER226     -0.1217
    117  CA        14.0830   -7.2660   18.1750 C.3   226  SER226      0.1889
    118  C         14.4740   -5.8510   17.7100 C.2   226  SER226      0.2288
    119  O         14.1180   -5.5410   16.5710 O.2   226  SER226     -0.2866
    120  CB        15.0810   -8.2180   17.5120 C.3   226  SER226      0.2089
    121  OG        15.3900   -9.3640   18.2240 O.3   226  SER226     -0.2183
    122  N         14.1190   -3.7410   22.5840 N.3   246  VAL246     -0.1231
    123  CA        13.7670   -5.1800   22.6580 C.3   246  VAL246      0.1692
    124  C         15.0910   -5.9370   22.4690 C.2   246  VAL246      0.2593
    125  O         15.8510   -5.7850   21.4980 O.2   246  VAL246     -0.2718
    126  CB        12.6830   -5.5500   21.6380 C.3   246  VAL246      0.0266
    127  CG1       12.3440   -7.0720   21.7380 C.3   246  VAL246      0.0020
    128  CG2       11.4680   -4.6720   21.7260 C.3   246  VAL246      0.0020
    129  N         15.4040   -6.6790   23.5220 N.am  247  SER247     -0.1938
    130  CA        16.6750   -7.3980   23.5140 C.3   247  SER247      0.2055
    131  C         16.5200   -8.8990   23.3870 C.2   247  SER247      0.2643
    132  O         16.9330   -9.4390   22.3440 O.2   247  SER247     -0.2714
    133  CB        17.4970   -7.0230   24.7560 C.3   247  SER247      0.2130
    134  OG        18.8120   -7.5090   24.5740 O.3   247  SER247     -0.2179
    135  N         16.1180   -9.5430   24.4680 N.am  248  TRP248     -0.1959
    136  CA        16.0700  -11.0070   24.4790 C.3   248  TRP248      0.1771
    137  C         15.0090  -11.4090   25.4470 C.2   248  TRP248      0.2620
    138  O         14.3700  -10.5980   26.1330 O.2   248  TRP248     -0.2715
    139  CB        17.4650  -11.5680   24.7870 C.3   248  TRP248      0.0590
    140  CG        17.9230  -11.1900   26.1610 C.ar  248  TRP248      0.0006
    141  CD1       18.7590  -10.1750   26.5130 C.ar  248  TRP248      0.0946
    142  CD2       17.7450  -11.9900   27.3490 C.ar  248  TRP248      0.0152
    143  NE1       19.0610  -10.2040   27.8450 N.ar  248  TRP248     -0.2442
    144  CE2       18.4260  -11.3050   28.4000 C.ar  248  TRP248      0.0810
    145  CE3       17.1110  -13.2060   27.6150 C.ar  248  TRP248      0.0012
    146  CZ2       18.4290  -11.7960   29.6980 C.ar  248  TRP248      0.0191
    147  CZ3       17.1130  -13.6770   28.8980 C.ar  248  TRP248      0.0001
    148  CH2       17.7570  -12.9890   29.9320 C.ar  248  TRP248      0.0015
    149  N         14.6640  -12.6810   25.2960 N.am  249  GLY249     -0.1940
    150  CA        13.5710  -13.2370   26.1640 C.3   249  GLY249      0.2014
    151  C         13.6190  -14.7330   25.7650 C.2   249  GLY249      0.2639
    152  O         14.3350  -15.0740   24.8150 O.2   249  GLY249     -0.2714
    153  N         13.0870  -15.5200   26.6370 N.am  250  GLU250     -0.1963
    154  CA        13.0620  -16.9970   26.3990 C.3   250  GLU250      0.1733
    155  C         11.6600  -17.3590   25.9760 C.2   250  GLU250      0.2617
    156  O         10.6990  -17.2200   26.7650 O.2   250  GLU250     -0.2715
    157  CB        13.4560  -17.6650   27.7120 C.3   250  GLU250      0.0429
    158  CG        14.8710  -17.2940   28.2130 C.3   250  GLU250      0.1163
    159  CD        15.0600  -17.3820   29.7060 C.2   250  GLU250      0.3649
    160  OE1       15.2590  -16.3810   30.3880 O.co2 250  GLU250     -0.2457
    161  OE2       14.8750  -18.5330   30.1810 O.co2 250  GLU250     -0.2457
    162  N         11.5290  -17.6230   24.6850 N.am  251  GLY251     -0.1940
    163  CA        10.1390  -17.8670   24.1190 C.3   251  GLY251      0.2014
    164  C          9.4870  -16.4830   24.0010 C.2   251  GLY251      0.2639
    165  O         10.1540  -15.4370   24.1900 O.2   251  GLY251     -0.2714
    166  N          8.2020  -16.5030   23.7390 N.am  252  CYS252     -0.1953
    167  CA         7.4340  -15.2520   23.6430 C.3   252  CYS252      0.1843
    168  C          6.2510  -15.3850   24.5690 C.2   252  CYS252      0.2625
    169  O          5.4680  -16.3420   24.3140 O.2   252  CYS252     -0.2714
    170  CB         6.9490  -15.0320   22.1930 C.3   252  CYS252      0.0997
    171  SG         8.3330  -15.0360   21.0460 S.3   252  CYS252     -0.0797
    172  N          6.0900  -14.5150   25.5450 N.am  253  ASP253     -0.1971
    173  CA         4.8440  -14.6480   26.3270 C.3   253  ASP253      0.1709
    174  C          4.7040  -15.9830   27.0400 C.2   253  ASP253      0.2293
    175  O          3.5610  -16.4970   27.2440 O.2   253  ASP253     -0.2864
    176  CB         3.6290  -14.3350   25.4070 C.3   253  ASP253      0.1436
    177  CG         2.4660  -13.8410   26.2610 C.2   253  ASP253      0.3671
    178  OD1        2.7210  -13.2280   27.3400 O.co2 253  ASP253     -0.2456
    179  OD2        1.3110  -14.1960   25.9510 O.co2 253  ASP253     -0.2456
    180  N          8.0770  -16.0140   32.5600 N.3   257  LYS257     -0.1231
    181  CA         9.2110  -15.4760   31.7910 C.3   257  LYS257      0.1693
    182  C          8.8830  -14.0300   31.3650 C.2   257  LYS257      0.2592
    183  O          7.7170  -13.5850   31.3340 O.2   257  LYS257     -0.2718
    184  CB         9.6560  -16.3630   30.6570 C.3   257  LYS257      0.0285
    185  CG        10.0670  -17.8020   31.0390 C.3   257  LYS257      0.0035
    186  CD        11.4880  -17.9150   31.4990 C.3   257  LYS257      0.0206
    187  CE        11.9810  -19.2840   31.9100 C.3   257  LYS257      0.1093
    188  NZ        11.9320  -19.3950   33.4190 N.3   257  LYS257     -0.1314
    189  N          9.9010  -13.2090   31.1660 N.am  258  TYR258     -0.1962
    190  CA         9.7640  -11.7980   30.8390 C.3   258  TYR258      0.1771
    191  C         10.6150  -11.4420   29.6210 C.2   258  TYR258      0.2620
    192  O         11.6110  -12.1140   29.3100 O.2   258  TYR258     -0.2715
    193  CB        10.3150  -10.9090   32.0280 C.3   258  TYR258      0.0574
    194  CG         9.5140  -11.2770   33.2610 C.ar  258  TYR258     -0.0198
    195  CD1        9.9540  -12.3080   34.1120 C.ar  258  TYR258     -0.0009
    196  CD2        8.2250  -10.7510   33.4180 C.ar  258  TYR258     -0.0009
    197  CE1        9.1180  -12.7780   35.1210 C.ar  258  TYR258      0.0417
    198  CE2        7.4310  -11.0960   34.5020 C.ar  258  TYR258      0.0417
    199  CZ         7.8750  -12.1840   35.2860 C.ar  258  TYR258      0.1957
    200  OH         6.9990  -12.6040   36.2470 O.3   258  TYR258     -0.2866
    201  N         10.2520  -10.3060   29.0370 N.am  259  GLY259     -0.1940
    202  CA        11.1330   -9.8080   27.9290 C.3   259  GLY259      0.2014
    203  C         12.1870   -8.9360   28.6630 C.2   259  GLY259      0.2639
    204  O         11.8480   -8.3080   29.7010 O.2   259  GLY259     -0.2714
    205  N         13.3180   -8.8830   28.0280 N.am  260  PHE260     -0.1959
    206  CA        14.4780   -8.1160   28.5320 C.3   260  PHE260      0.1771
    207  C         14.8340   -7.0530   27.4990 C.2   260  PHE260      0.2619
    208  O         14.8660   -7.3140   26.2970 O.2   260  PHE260     -0.2715
    209  CB        15.6590   -9.0240   28.8680 C.3   260  PHE260      0.0574
    210  CG        15.5040   -9.7490   30.1670 C.ar  260  PHE260     -0.0200
    211  CD1       14.7550  -10.9300   30.2260 C.ar  260  PHE260     -0.0042
    212  CD2       16.1280   -9.2430   31.3180 C.ar  260  PHE260     -0.0042
    213  CE1       14.5200  -11.5740   31.4340 C.ar  260  PHE260     -0.0003
    214  CE2       15.9820   -9.9630   32.5260 C.ar  260  PHE260     -0.0003
    215  CZ        15.1670  -11.0880   32.5790 C.ar  260  PHE260     -0.0000
    216  N         15.1250   -5.8840   28.0160 N.am  261  TYR261     -0.1974
    217  CA        15.3300   -4.6750   27.1860 C.3   261  TYR261      0.1639
    218  C         16.6400   -4.0240   27.5150 C.2   261  TYR261      0.2290
    219  O         16.9860   -4.0500   28.7080 O.2   261  TYR261     -0.2864
    220  CB        14.1190   -3.7450   27.6470 C.3   261  TYR261      0.0560
    221  CG        12.7740   -4.2910   27.2310 C.ar  261  TYR261     -0.0198
    222  CD1       12.0950   -5.2230   28.0140 C.ar  261  TYR261     -0.0009
    223  CD2       12.2460   -4.0230   25.9620 C.ar  261  TYR261     -0.0009
    224  CE1       10.9300   -5.8590   27.5840 C.ar  261  TYR261      0.0417
    225  CE2       11.0550   -4.6050   25.5170 C.ar  261  TYR261      0.0417
    226  CZ        10.4140   -5.5250   26.3130 C.ar  261  TYR261      0.1957
    227  OH         9.2630   -6.1470   25.8660 O.3   261  TYR261     -0.2866
@<TRIPOS>BOND
     1    26    25    2
     2    25    24    1
     3   110   109   ar
     4   111   109   ar
     5   115   114    2
     6    24    27    1
     7    24    23    1
     8   109   108    1
     9   113   114    1
    10   113   112    1
    11    27    28    1
    12    14    13    2
    13   106   105    2
    14   112   105   am
    15    11    12    1
    16   108   107    1
    17    28    30   ar
    18    28    29   ar
    19    13    12    1
    20   105   104    1
    21     4     3    2
    22   107   104    1
    23    33    30   ar
    24    33    35   ar
    25    12    15    1
    26    30    32   ar
    27    29    31   ar
    28   119   118    2
    29    15    16    1
    30     3     2    1
    31   104   103    1
    32    35    36   ar
    33    32    31   ar
    34    32    34   ar
    35   120   117    1
    36   120   121    1
    37    18    16   ar
    38    18    20   ar
    39   118   117    1
    40   116   117    1
    41    16    17   ar
    42     2     1    1
    43     2     5    1
    44   103    99   am
    45    36    34   ar
    46     8    10   ar
    47     8     6   ar
    48   100    99    2
    49    99    98    1
    50    20    21   ar
    51    10     9   ar
    52    17    19   ar
    53     5     6    1
    54     6     7   ar
    55   102   101    1
    56   102   171    1
    57   101    98    1
    58    48    50   ar
    59    48    46   ar
    60    50    49   ar
    61    46    45   ar
    62    46    44   ar
    63    98    97    1
    64    45    43   ar
    65    49    47   ar
    66     9     7   ar
    67    21    19   ar
    68    21    22    1
    69    44    47   ar
    70    44    42   ar
    71    43    42   ar
    72    97    94   am
    73    42    41    1
    74    41    38    1
    75   171   170    1
    76   125   124    2
    77    94    93    1
    78    94    95    2
    79   126   128    1
    80   126   127    1
    81   126   123    1
    82    93    96    1
    83    93    92    1
    84   170   167    1
    85   132   131    2
    86    38    39    1
    87    38    37    1
    88   124   123    1
    89   124   129   am
    90    40    39    2
    91    87    86    2
    92    75    73    1
    93   122   123    1
    94    74    73    1
    95    92    86   am
    96   131   130    1
    97   131   135   am
    98    86    85    1
    99   130   129    1
   100   130   133    1
   101    73    72    1
   102   167   166    1
   103   167   168    1
   104   166   164   am
   105   164   163    1
   106   164   165    2
   107   163   162    1
   108   169   168    2
   109   135   136    1
   110   136   139    1
   111   136   137    1
   112   168   172   am
   113   134   133    1
   114    72    69    1
   115   162   155   am
   116   139   140    1
   117   152   151    2
   118    85    84    1
   119    85    88    1
   120    69    70    1
   121    69    68    1
   122   149   137   am
   123   149   150    1
   124    88    89    1
   125   176   177    1
   126   176   173    1
   127   137   138    2
   128   225   223   ar
   129   225   226   ar
   130   172   173    1
   131    71    70    2
   132   151   150    1
   133   151   153   am
   134    51    52    1
   135   227   226    1
   136    68    62   am
   137    89    91   ar
   138    89    90   ar
   139   179   177   ar
   140   223   221   ar
   141   155   154    1
   142   155   156    2
   143   140   141   ar
   144   140   142   ar
   145   177   178   ar
   146   208   207    2
   147   226   224   ar
   148   173   174    1
   149   154   153    1
   150   154   157    1
   151   141   143   ar
   152    52    53    1
   153    52    55    1
   154   174   175    2
   155    62    63    2
   156    62    61    1
   157    54    53    2
   158   217   218    1
   159   217   220    1
   160   217   216    1
   161    53    60   am
   162   221   220    1
   163   221   222   ar
   164   142   145   ar
   165   142   144   ar
   166    60    61    1
   167   207   216   am
   168   207   206    1
   169   218   219    2
   170   224   222   ar
   171   145   147   ar
   172   157   158    1
   173    61    64    1
   174   143   144   ar
   175   202   203    1
   176   202   201    1
   177   205   206    1
   178   205   203   am
   179   158   159    1
   180    55    56    1
   181   144   146   ar
   182   206   209    1
   183    83    81    1
   184   203   204    2
   185   209   210    1
   186   147   148   ar
   187    66    65    2
   188   201   191   am
   189    64    65    1
   190   192   191    2
   191    56    57    1
   192   191   190    1
   193   146   148   ar
   194   159   161   ar
   195   159   160   ar
   196    65    67   am
   197    81    80    1
   198   210   211   ar
   199   210   212   ar
   200   211   213   ar
   201    82    80    1
   202    58    57   ar
   203   184   185    1
   204   184   181    1
   205    57    59   ar
   206   190   189    1
   207   190   193    1
   208    80    77    1
   209   185   186    1
   210   189   182   am
   211   212   214   ar
   212   183   182    2
   213   182   181    1
   214   213   215   ar
   215   186   187    1
   216   181   180    1
   217   187   188    1
   218   193   194    1
   219    77    76    1
   220    77    78    1
   221   214   215   ar
   222   194   196   ar
   223   194   195   ar
   224    78    79    2
   225   196   198   ar
   226   195   197   ar
   227   198   199   ar
   228   197   199   ar
   229   199   200    1
