@<TRIPOS>MOLECULE
tmp/1d7aD00.pdb
 99 95 0 0 0
SMALL
GASTEIGER

@<TRIPOS>ATOM
      1  N         42.3690    7.2670   43.2070 N.3     8  GLY8       -0.1210
      2  CA        42.0490    7.3400   44.6250 C.3     8  GLY8        0.1956
      3  C         41.4740    6.0950   45.2910 C.2     8  GLY8        0.2612
      4  O         41.7160    5.8550   46.4770 O.2     8  GLY8       -0.2717
      5  N         40.7170    5.2990   44.5450 N.am    9  SER9       -0.1952
      6  CA        40.1120    4.0900   45.1020 C.3     9  SER9        0.1924
      7  C         40.1440    2.9650   44.1090 C.2     9  SER9        0.2314
      8  O         40.2210    3.1930   42.9050 O.2     9  SER9       -0.2863
      9  CB        38.6430    4.3300   45.4510 C.3     9  SER9        0.2116
     10  OG        38.4900    5.5360   46.1610 O.3     9  SER9       -0.2180
     11  N         37.7200    1.4100   43.4500 N.3    11  SER11      -0.1202
     12  CA        36.4220    1.5470   42.7980 C.3    11  SER11       0.2020
     13  C         36.4820    2.4660   41.5760 C.2    11  SER11       0.2618
     14  O         35.5280    2.5470   40.8010 O.2    11  SER11      -0.2717
     15  CB        35.3580    2.0120   43.7970 C.3    11  SER11       0.2103
     16  OG        35.6090    3.3170   44.2560 O.3    11  SER11      -0.2182
     17  N         37.6070    3.1590   41.4040 N.am   12  ASP12      -0.1973
     18  CA        37.7970    4.0320   40.2490 C.3    12  ASP12       0.1709
     19  C         38.3290    3.1940   39.0830 C.2    12  ASP12       0.2293
     20  O         38.3340    3.6450   37.9430 O.2    12  ASP12      -0.2864
     21  CB        38.7900    5.1600   40.5590 C.3    12  ASP12       0.1436
     22  CG        38.1940    6.2550   41.4280 C.2    12  ASP12       0.3671
     23  OD1       37.0060    6.6010   41.2520 O.co2  12  ASP12      -0.2456
     24  OD2       38.9230    6.7870   42.2900 O.co2  12  ASP12      -0.2456
     25  N         45.6790    7.2570   47.4320 N.3    35  SER35      -0.1202
     26  CA        44.5950    8.0650   47.9550 C.3    35  SER35       0.2020
     27  C         45.1030    9.3510   48.5860 C.2    35  SER35       0.2619
     28  O         45.9180    9.3300   49.5020 O.2    35  SER35      -0.2717
     29  CB        43.8030    7.2500   48.9770 C.3    35  SER35       0.2103
     30  OG        42.9990    8.0850   49.7810 O.3    35  SER35      -0.2182
     31  N         44.5730   10.4780   48.1250 N.am   36  ALA36      -0.1965
     32  CA        44.9860   11.7770   48.6410 C.3    36  ALA36       0.1728
     33  C         44.5410   12.0260   50.0780 C.2    36  ALA36       0.2616
     34  O         45.2240   12.7140   50.8410 O.2    36  ALA36      -0.2715
     35  CB        44.4550   12.8700   47.7380 C.3    36  ALA36       0.0334
     36  N         43.4060   11.4440   50.4480 N.am   37  HIS37      -0.1959
     37  CA        42.8470   11.6290   51.7730 C.3    37  HIS37       0.1787
     38  C         43.0970   10.4800   52.7430 C.2    37  HIS37       0.2620
     39  O         43.2570   10.7070   53.9370 O.2    37  HIS37      -0.2715
     40  CB        41.3550   11.9290   51.6410 C.3    37  HIS37       0.0785
     41  CG        41.0500   13.0690   50.7120 C.ar   37  HIS37       0.0821
     42  ND1       40.2220   12.9410   49.6140 N.ar   37  HIS37      -0.2267
     43  CD2       41.4760   14.3540   50.7090 C.ar   37  HIS37       0.1154
     44  CE1       40.1510   14.0980   48.9770 C.ar   37  HIS37       0.1986
     45  NE2       40.9040   14.9720   49.6200 N.ar   37  HIS37      -0.2212
     46  N         43.1400    9.2490   52.2390 N.am   38  ARG38      -0.1977
     47  CA        43.3980    8.0860   53.1040 C.3    38  ARG38       0.1597
     48  C         44.8780    7.7620   53.2680 C.2    38  ARG38       0.2287
     49  O         45.2770    7.2120   54.2930 O.2    38  ARG38      -0.2864
     50  CB        42.6550    6.8460   52.6140 C.3    38  ARG38       0.0334
     51  CG        41.1780    6.9730   52.7490 C.3    38  ARG38       0.0492
     52  CD        40.4620    5.8170   52.1250 C.3    38  ARG38       0.2205
     53  NE        39.0290    6.0410   52.2400 N.pl3  38  ARG38      -0.0865
     54  CZ        38.1820    6.0530   51.2140 C.cat  38  ARG38       0.5346
     55  NH1       38.6160    5.8260   49.9720 N.pl3  38  ARG38       0.1354
     56  NH2       36.9170    6.4100   51.4180 N.pl3  38  ARG38       0.1354
     57  N         40.1500   10.5580   39.7750 N.3    62  ALA62      -0.1231
     58  CA        39.4950   10.7140   41.0700 C.3    62  ALA62       0.1694
     59  C         38.1270   11.3650   40.9050 C.2    62  ALA62       0.2593
     60  O         37.8710   12.0330   39.9110 O.2    62  ALA62      -0.2718
     61  CB        40.3690   11.5400   41.9940 C.3    62  ALA62       0.0304
     62  N         37.2570   11.1680   41.8880 N.am   63  GLY63      -0.1942
     63  CA        35.9120   11.7170   41.8380 C.3    63  GLY63       0.2014
     64  C         35.5280   12.4860   43.0890 C.2    63  GLY63       0.2639
     65  O         36.2400   12.4410   44.0890 O.2    63  GLY63      -0.2714
     66  N         34.3860   13.1720   43.0460 N.am   64  GLY64      -0.1939
     67  CA        33.9480   13.9610   44.1840 C.3    64  GLY64       0.2014
     68  C         34.9330   15.1000   44.3460 C.2    64  GLY64       0.2638
     69  O         35.3090   15.7350   43.3650 O.2    64  GLY64      -0.2714
     70  N         35.3470   15.3880   45.5710 N.am   65  ALA65      -0.1977
     71  CA        36.3370   16.4310   45.7850 C.3    65  ALA65       0.1597
     72  C         37.6290   15.7270   45.4030 C.2    65  ALA65       0.2287
     73  O         38.2690   15.0880   46.2370 O.2    65  ALA65      -0.2864
     74  CB        36.3630   16.8370   47.2300 C.3    65  ALA65       0.0319
     75  N         41.0600   15.6890   44.8800 N.3    67  HIS67      -0.1226
     76  CA        42.3100   16.3850   45.1850 C.3    67  HIS67       0.1752
     77  C         43.5620   15.6880   44.6580 C.2    67  HIS67       0.2595
     78  O         44.5910   16.3260   44.4830 O.2    67  HIS67      -0.2718
     79  CB        42.4530   16.5820   46.6910 C.3    67  HIS67       0.0759
     80  CG        41.3490   17.3820   47.3030 C.ar   67  HIS67       0.0818
     81  ND1       40.3110   17.9110   46.5630 N.ar   67  HIS67      -0.2268
     82  CD2       41.1270   17.7550   48.5830 C.ar   67  HIS67       0.1154
     83  CE1       39.5000   18.5750   47.3620 C.ar   67  HIS67       0.1986
     84  NE2       39.9710   18.4950   48.5930 N.ar   67  HIS67      -0.2212
     85  N         43.4570   14.3920   44.3760 N.am   68  LEU68      -0.1980
     86  CA        44.5880   13.6020   43.8970 C.3    68  LEU68       0.1596
     87  C         45.4460   14.1890   42.7660 C.2    68  LEU68       0.2287
     88  O         46.6390   14.3800   42.9570 O.2    68  LEU68      -0.2864
     89  CB        44.1450   12.1800   43.5590 C.3    68  LEU68       0.0297
     90  CG        45.2870   11.2610   43.1230 C.3    68  LEU68       0.0022
     91  CD1       46.2370   11.0320   44.2710 C.3    68  LEU68       0.0001
     92  CD2       44.7410    9.9450   42.6340 C.3    68  LEU68       0.0001
     93  N         36.2600   11.2120   37.5810 N.3    84  VAL84      -0.1245
     94  CA        35.4330   10.0180   37.6630 C.3    84  VAL84       0.1561
     95  C         34.0030   10.4470   37.9800 C.2    84  VAL84       0.2260
     96  O         33.7780   11.3020   38.8210 O.2    84  VAL84      -0.2867
     97  CB        35.9730    9.0440   38.7350 C.3    84  VAL84       0.0252
     98  CG1       35.0580    7.8520   38.8870 C.3    84  VAL84       0.0019
     99  CG2       37.3790    8.5780   38.3500 C.3    84  VAL84       0.0019
@<TRIPOS>BOND
     1    93    94    1
     2    94    95    1
     3    94    97    1
     4    20    19    2
     5    95    96    2
     6    99    97    1
     7    97    98    1
     8    19    18    1
     9    57    58    1
    10    60    59    2
    11    18    21    1
    12    18    17    1
    13    21    22    1
    14    14    13    2
    15    59    58    1
    16    59    62   am
    17    58    61    1
    18    23    22   ar
    19    17    13   am
    20    22    24   ar
    21    13    12    1
    22    63    62    1
    23    63    64    1
    24    92    90    1
    25    87    88    2
    26    87    86    1
    27    12    11    1
    28    12    15    1
    29     8     7    2
    30    66    64   am
    31    66    67    1
    32    64    65    2
    33    90    89    1
    34    90    91    1
    35     1     2    1
    36    69    68    2
    37    89    86    1
    38    15    16    1
    39    86    85    1
    40     7     6    1
    41    67    68    1
    42    68    70   am
    43    85    77   am
    44    78    77    2
    45     5     6    1
    46     5     3   am
    47     2     3    1
    48    77    76    1
    49    75    76    1
    50     6     9    1
    51    76    79    1
    52     3     4    2
    53    72    71    1
    54    72    73    2
    55     9    10    1
    56    70    71    1
    57    71    74    1
    58    81    80   ar
    59    81    83   ar
    60    79    80    1
    61    80    82   ar
    62    83    84   ar
    63    25    26    1
    64    35    32    1
    65    26    27    1
    66    26    29    1
    67    31    27   am
    68    31    32    1
    69    82    84   ar
    70    27    28    2
    71    32    33    1
    72    29    30    1
    73    44    42   ar
    74    44    45   ar
    75    42    41   ar
    76    45    43   ar
    77    55    54    1
    78    33    36   am
    79    33    34    2
    80    36    37    1
    81    43    41   ar
    82    41    40    1
    83    54    56    1
    84    54    53    2
    85    40    37    1
    86    37    38    1
    87    52    53    1
    88    52    51    1
    89    46    38   am
    90    46    47    1
    91    50    51    1
    92    50    47    1
    93    38    39    2
    94    47    48    1
    95    48    49    2
