@<TRIPOS>MOLECULE
tmp/1d7cA01.pdb
 192 193 0 0 0
SMALL
GASTEIGER

@<TRIPOS>ATOM
      1  N         50.1120   40.8350   41.4420 N.3    55  TRP55      -0.1241
      2  CA        50.7800   40.4280   40.2000 C.3    55  TRP55       0.1605
      3  C         49.9420   40.9140   39.0060 C.2    55  TRP55       0.2264
      4  O         48.7300   41.0930   39.1300 O.2    55  TRP55      -0.2867
      5  CB        51.0530   38.9400   40.1250 C.3    55  TRP55       0.0550
      6  CG        49.9630   37.9330   40.0120 C.ar   55  TRP55       0.0003
      7  CD1       49.4100   37.2160   41.0390 C.ar   55  TRP55       0.0946
      8  CD2       49.2680   37.5040   38.8280 C.ar   55  TRP55       0.0152
      9  NE1       48.4190   36.3660   40.5720 N.ar   55  TRP55      -0.2442
     10  CE2       48.3200   36.5330   39.2130 C.ar   55  TRP55       0.0810
     11  CE3       49.3640   37.8510   37.4680 C.ar   55  TRP55       0.0012
     12  CZ2       47.4710   35.9020   38.2990 C.ar   55  TRP55       0.0191
     13  CZ3       48.5180   37.2230   36.5710 C.ar   55  TRP55       0.0001
     14  CH2       47.5810   36.2590   36.9830 C.ar   55  TRP55       0.0015
     15  N         49.6090   40.2880   34.6200 N.3    57  GLY57      -0.1210
     16  CA        50.0220   39.5950   33.3960 C.3    57  GLY57       0.1956
     17  C         49.5840   40.3780   32.1570 C.2    57  GLY57       0.2612
     18  O         48.6080   41.1270   32.1760 O.2    57  GLY57      -0.2717
     19  N         50.3410   40.2150   31.0840 N.am   58  ILE58      -0.1965
     20  CA        50.0730   40.7380   29.7540 C.3    58  ILE58       0.1727
     21  C         50.0500   39.5520   28.7850 C.2    58  ILE58       0.2616
     22  O         51.0110   38.7810   28.7350 O.2    58  ILE58      -0.2715
     23  CB        51.1050   41.7720   29.2870 C.3    58  ILE58       0.0290
     24  CG1       51.1360   43.0430   30.1300 C.3    58  ILE58       0.0022
     25  CG2       50.8840   42.1780   27.8240 C.3    58  ILE58       0.0023
     26  CD1       52.3680   43.8970   29.9380 C.3    58  ILE58       0.0001
     27  N         48.9370   39.4360   28.0820 N.am   59  ALA59      -0.1977
     28  CA        48.7650   38.3910   27.0720 C.3    59  ALA59       0.1597
     29  C         48.9430   39.0290   25.6950 C.2    59  ALA59       0.2287
     30  O         48.0590   39.7520   25.2290 O.2    59  ALA59      -0.2864
     31  CB        47.4210   37.7110   27.2190 C.3    59  ALA59       0.0319
     32  N         44.8070   36.6570   24.5030 N.3    63  ALA63      -0.1231
     33  CA        44.0770   35.5280   25.0560 C.3    63  ALA63       0.1694
     34  C         44.9640   34.7960   26.0480 C.2    63  ALA63       0.2592
     35  O         46.1860   34.9820   26.0310 O.2    63  ALA63      -0.2718
     36  CB        43.6310   34.5930   23.9450 C.3    63  ALA63       0.0304
     37  N         44.3820   33.9740   26.9220 N.am   64  MET64      -0.1965
     38  CA        45.3020   33.2950   27.8440 C.3    64  MET64       0.1736
     39  C         46.1460   32.2230   27.1710 C.2    64  MET64       0.2616
     40  O         47.3310   32.0930   27.4910 O.2    64  MET64      -0.2715
     41  CB        44.5380   32.6190   28.9900 C.3    64  MET64       0.0427
     42  CG        45.4590   32.1590   30.1140 C.3    64  MET64       0.0599
     43  SD        44.5150   31.4150   31.4640 S.3    64  MET64      -0.1393
     44  CE        45.8240   30.4690   32.2720 C.3    64  MET64       0.0692
     45  N         45.5560   31.4420   26.2640 N.am   65  ASN65      -0.1972
     46  CA        46.2170   30.2360   25.7720 C.3    65  ASN65       0.1688
     47  C         46.8730   30.4100   24.4130 C.2    65  ASN65       0.2292
     48  O         46.3630   31.1530   23.5770 O.2    65  ASN65      -0.2864
     49  CB        45.1940   29.0730   25.7080 C.3    65  ASN65       0.1181
     50  CG        44.5710   28.7720   27.0660 C.2    65  ASN65       0.2629
     51  OD1       45.2630   28.5170   28.0540 O.2    65  ASN65      -0.2716
     52  ND2       43.2450   28.8020   27.1890 N.am   65  ASN65      -0.0877
     53  N         52.9450   35.1570   27.1100 N.3    69  LEU69      -0.1231
     54  CA        52.4860   35.8820   28.2780 C.3    69  LEU69       0.1693
     55  C         53.6670   36.4960   29.0320 C.2    69  LEU69       0.2592
     56  O         54.7160   35.8570   29.1600 O.2    69  LEU69      -0.2718
     57  CB        51.7270   34.9690   29.2490 C.3    69  LEU69       0.0284
     58  CG        50.6470   34.0740   28.6260 C.3    69  LEU69       0.0019
     59  CD1       50.1160   33.1130   29.6760 C.3    69  LEU69       0.0001
     60  CD2       49.5160   34.9110   28.0420 C.3    69  LEU69       0.0001
     61  N         53.4680   37.7060   29.5360 N.am   70  LEU70      -0.1966
     62  CA        54.4460   38.3640   30.4080 C.3    70  LEU70       0.1728
     63  C         53.8330   38.4620   31.8040 C.2    70  LEU70       0.2616
     64  O         52.6880   38.9020   31.9060 O.2    70  LEU70      -0.2715
     65  CB        54.8490   39.7510   29.9240 C.3    70  LEU70       0.0311
     66  CG        55.1720   39.8580   28.4320 C.3    70  LEU70       0.0022
     67  CD1       55.5300   41.2790   28.0390 C.3    70  LEU70       0.0001
     68  CD2       56.2910   38.8760   28.0710 C.3    70  LEU70       0.0001
     69  N         54.5660   38.0370   32.8270 N.am   71  VAL71      -0.1977
     70  CA        53.9930   38.1430   34.1820 C.3    71  VAL71       0.1596
     71  C         54.9850   38.8880   35.0630 C.2    71  VAL71       0.2287
     72  O         56.2040   38.6760   34.9640 O.2    71  VAL71      -0.2864
     73  CB        53.6580   36.7580   34.7470 C.3    71  VAL71       0.0276
     74  CG1       53.0310   36.8910   36.1290 C.3    71  VAL71       0.0022
     75  CG2       52.7350   35.9850   33.8160 C.3    71  VAL71       0.0022
     76  N         43.8420   26.9220   30.1080 N.3    89  TYR89      -0.1227
     77  CA        43.4020   27.6660   31.2960 C.3    89  TYR89       0.1736
     78  C         43.9630   27.0770   32.5770 C.2    89  TYR89       0.2595
     79  O         43.2690   26.9780   33.5890 O.2    89  TYR89      -0.2718
     80  CB        41.8720   27.7290   31.3570 C.3    89  TYR89       0.0548
     81  CG        41.2410   28.4920   30.2120 C.ar   89  TYR89      -0.0200
     82  CD1       41.3750   29.8680   30.1530 C.ar   89  TYR89      -0.0009
     83  CD2       40.5270   27.8870   29.1880 C.ar   89  TYR89      -0.0009
     84  CE1       40.8250   30.6310   29.1440 C.ar   89  TYR89       0.0417
     85  CE2       39.9760   28.6400   28.1630 C.ar   89  TYR89       0.0417
     86  CZ        40.1180   30.0130   28.1350 C.ar   89  TYR89       0.1957
     87  OH        39.5690   30.7820   27.1310 O.3    89  TYR89      -0.2866
     88  N         45.2360   26.6800   32.5660 N.am   90  VAL90      -0.1966
     89  CA        45.8660   26.2670   33.8270 C.3    90  VAL90       0.1727
     90  C         47.1120   27.1300   34.0600 C.2    90  VAL90       0.2616
     91  O         47.4720   27.8570   33.1290 O.2    90  VAL90      -0.2715
     92  CB        46.2440   24.7770   33.8420 C.3    90  VAL90       0.0290
     93  CG1       45.0250   23.8980   33.5920 C.3    90  VAL90       0.0023
     94  CG2       47.3190   24.4630   32.8140 C.3    90  VAL90       0.0023
     95  N         47.6950   27.0370   35.2350 N.am   91  GLN91      -0.1964
     96  CA        48.9380   27.6780   35.6360 C.3    91  GLN91       0.1718
     97  C         49.9200   27.7750   34.4700 C.2    91  GLN91       0.2458
     98  O         50.4700   26.7650   34.0320 O.2    91  GLN91      -0.2730
     99  CB        49.5860   26.8900   36.7820 C.3    91  GLN91       0.0407
    100  CG        50.9700   27.3710   37.2070 C.3    91  GLN91       0.0908
    101  CD        50.9530   28.7530   37.8210 C.2    91  GLN91       0.2608
    102  OE1       50.5030   28.9380   38.9500 O.2    91  GLN91      -0.2717
    103  NE2       51.4240   29.7690   37.1100 N.am   91  GLN91      -0.0878
    104  N         50.1210   28.9810   33.9460 N.am   92  PRO92      -0.2727
    105  CA        51.1250   29.2080   32.9080 C.3    92  PRO92       0.1402
    106  C         52.5380   28.8660   33.3700 C.2    92  PRO92       0.2269
    107  O         52.9390   29.2100   34.4770 O.2    92  PRO92      -0.2865
    108  CB        51.0260   30.7210   32.6590 C.3    92  PRO92       0.0296
    109  CG        49.6140   31.0490   33.0370 C.3    92  PRO92       0.0237
    110  CD        49.3670   30.2140   34.2740 C.3    92  PRO92       0.0939
    111  N         45.5860   41.6050   26.0250 N.3   141  ALA141     -0.1231
    112  CA        44.7930   41.4180   27.2450 C.3   141  ALA141      0.1694
    113  C         45.6970   41.5570   28.4740 C.2   141  ALA141      0.2592
    114  O         46.9110   41.4210   28.3870 O.2   141  ALA141     -0.2718
    115  CB        44.0660   40.0910   27.1880 C.3   141  ALA141      0.0304
    116  N         45.1290   41.8520   29.6270 N.am  142  TRP142     -0.1962
    117  CA        45.8410   41.9590   30.8930 C.3   142  TRP142      0.1771
    118  C         45.1210   41.0910   31.9180 C.2   142  TRP142      0.2619
    119  O         43.9240   40.8140   31.8050 O.2   142  TRP142     -0.2715
    120  CB        45.9260   43.4020   31.3940 C.3   142  TRP142      0.0590
    121  CG        44.5980   44.0860   31.5150 C.ar  142  TRP142      0.0006
    122  CD1       44.0500   44.9310   30.5910 C.ar  142  TRP142      0.0946
    123  CD2       43.6560   43.9960   32.5950 C.ar  142  TRP142      0.0152
    124  NE1       42.8230   45.3720   31.0280 N.ar  142  TRP142     -0.2442
    125  CE2       42.5590   44.8140   32.2540 C.ar  142  TRP142      0.0810
    126  CE3       43.6120   43.3150   33.8200 C.ar  142  TRP142      0.0012
    127  CZ2       41.4540   44.9590   33.0900 C.ar  142  TRP142      0.0191
    128  CZ3       42.5110   43.4590   34.6480 C.ar  142  TRP142      0.0001
    129  CH2       41.4310   44.2820   34.2790 C.ar  142  TRP142      0.0015
    130  N         45.8660   40.6740   32.9240 N.am  143  ALA143     -0.1977
    131  CA        45.3500   39.8690   34.0170 C.3   143  ALA143      0.1597
    132  C         45.8460   40.5080   35.3190 C.2   143  ALA143      0.2287
    133  O         46.9920   40.9760   35.3460 O.2   143  ALA143     -0.2864
    134  CB        45.7860   38.4220   33.9420 C.3   143  ALA143      0.0319
    135  N         51.0620   30.5670   41.3290 N.3   159  PHE159     -0.1227
    136  CA        50.1690   31.5580   41.9500 C.3   159  PHE159      0.1736
    137  C         48.7390   31.1850   41.5950 C.2   159  PHE159      0.2596
    138  O         48.4790   30.2720   40.8140 O.2   159  PHE159     -0.2718
    139  CB        50.4920   32.9800   41.5130 C.3   159  PHE159      0.0547
    140  CG        50.7200   33.1460   40.0170 C.ar  159  PHE159     -0.0202
    141  CD1       49.6640   33.2760   39.1440 C.ar  159  PHE159     -0.0042
    142  CD2       52.0120   33.1850   39.5120 C.ar  159  PHE159     -0.0042
    143  CE1       49.8620   33.4290   37.7810 C.ar  159  PHE159     -0.0003
    144  CE2       52.2220   33.3240   38.1570 C.ar  159  PHE159     -0.0003
    145  CZ        51.1580   33.4580   37.2860 C.ar  159  PHE159     -0.0000
    146  N         47.7770   31.9030   42.1600 N.am  160  SER160     -0.1938
    147  CA        46.3950   31.5230   41.9050 C.3   160  SER160      0.2055
    148  C         45.8540   32.3590   40.7610 C.2   160  SER160      0.2643
    149  O         46.4520   33.3640   40.3860 O.2   160  SER160     -0.2714
    150  CB        45.5780   31.7350   43.1880 C.3   160  SER160      0.2130
    151  OG        45.7830   33.0750   43.6490 O.3   160  SER160     -0.2179
    152  N         44.7240   31.9490   40.2230 N.am  161  GLU161     -0.1963
    153  CA        44.1050   32.6200   39.0960 C.3   161  GLU161      0.1733
    154  C         43.8560   34.1000   39.3720 C.2   161  GLU161      0.2616
    155  O         43.5540   34.4700   40.5020 O.2   161  GLU161     -0.2715
    156  CB        42.7780   31.9250   38.7750 C.3   161  GLU161      0.0429
    157  CG        42.0200   32.5720   37.6290 C.3   161  GLU161      0.1163
    158  CD        40.6930   31.8770   37.3900 C.2   161  GLU161      0.3649
    159  OE1       40.5340   30.7330   37.8550 O.co2 161  GLU161     -0.2457
    160  OE2       39.8260   32.4680   36.7290 O.co2 161  GLU161     -0.2457
    161  N         43.9750   34.9140   38.3290 N.am  162  HIS162     -0.1973
    162  CA        43.7310   36.3400   38.4020 C.3   162  HIS162      0.1656
    163  C         42.3490   36.6070   38.9850 C.2   162  HIS162      0.2291
    164  O         41.4570   35.7800   38.7850 O.2   162  HIS162     -0.2864
    165  CB        43.8520   36.9430   36.9920 C.3   162  HIS162      0.0771
    166  CG        43.3750   35.9850   35.9340 C.ar  162  HIS162      0.0820
    167  ND1       42.0410   35.7570   35.6570 N.ar  162  HIS162     -0.2267
    168  CD2       44.0660   35.1820   35.0800 C.ar  162  HIS162      0.1154
    169  CE1       41.9190   34.8650   34.6860 C.ar  162  HIS162      0.1986
    170  NE2       43.1470   34.4990   34.3190 N.ar  162  HIS162     -0.2212
    171  N         40.4500   40.3340   34.6570 N.3   165  PHE165     -0.1241
    172  CA        41.1820   40.3670   33.3940 C.3   165  PHE165      0.1605
    173  C         40.4360   41.2790   32.4270 C.2   165  PHE165      0.2264
    174  O         39.2520   41.5490   32.6520 O.2   165  PHE165     -0.2867
    175  CB        41.3570   38.9740   32.8000 C.3   165  PHE165      0.0534
    176  CG        40.0970   38.2070   32.4460 C.ar  165  PHE165     -0.0203
    177  CD1       39.4740   38.3670   31.2210 C.ar  165  PHE165     -0.0042
    178  CD2       39.5460   37.3160   33.3560 C.ar  165  PHE165     -0.0042
    179  CE1       38.3280   37.6670   30.8920 C.ar  165  PHE165     -0.0003
    180  CE2       38.4020   36.5930   33.0420 C.ar  165  PHE165     -0.0003
    181  CZ        37.8020   36.7740   31.8070 C.ar  165  PHE165     -0.0000
    182  N         40.5640   43.4160   28.1490 N.3   167  PHE167     -0.1241
    183  CA        41.0780   43.4340   26.7920 C.3   167  PHE167      0.1605
    184  C         41.1670   44.8500   26.2540 C.2   167  PHE167      0.2264
    185  O         40.4720   45.7260   26.7730 O.2   167  PHE167     -0.2867
    186  CB        40.1430   42.6530   25.8690 C.3   167  PHE167      0.0534
    187  CG        39.7710   41.2750   26.3830 C.ar  167  PHE167     -0.0203
    188  CD1       38.7070   41.1010   27.2540 C.ar  167  PHE167     -0.0042
    189  CD2       40.5030   40.1630   25.9750 C.ar  167  PHE167     -0.0042
    190  CE1       38.3820   39.8430   27.7280 C.ar  167  PHE167     -0.0003
    191  CE2       40.1690   38.9060   26.4580 C.ar  167  PHE167     -0.0003
    192  CZ        39.1110   38.7310   27.3330 C.ar  167  PHE167     -0.0000
@<TRIPOS>BOND
     1    48    47    2
     2    36    33    1
     3    47    46    1
     4    32    33    1
     5    33    34    1
     6    30    29    2
     7    29    28    1
     8    49    46    1
     9    49    50    1
    10    46    45    1
    11   186   187    1
    12   186   183    1
    13   189   187   ar
    14   189   191   ar
    15   111   112    1
    16    35    34    2
    17    34    37   am
    18   184   185    2
    19   184   183    1
    20    45    39   am
    21   187   188   ar
    22   191   192   ar
    23   183   182    1
    24    37    38    1
    25    50    52   am
    26    50    51    2
    27    28    31    1
    28    28    27    1
    29    53    54    1
    30    87    86    1
    31    39    40    2
    32    39    38    1
    33   115   112    1
    34   112   113    1
    35   188   190   ar
    36   192   190   ar
    37    25    23    1
    38    38    41    1
    39    67    66    1
    40    60    58    1
    41    68    66    1
    42    27    21   am
    43    86    85   ar
    44    86    84   ar
    45    85    83   ar
    46    54    55    1
    47    54    57    1
    48   114   113    2
    49    66    65    1
    50   113   116   am
    51    58    57    1
    52    58    59    1
    53    22    21    2
    54    21    20    1
    55    41    42    1
    56    55    56    2
    57    55    61   am
    58    84    82   ar
    59    83    81   ar
    60    23    20    1
    61    23    24    1
    62    61    62    1
    63   116   117    1
    64    20    19    1
    65    65    62    1
    66    26    24    1
    67    76    77    1
    68    42    43    1
    69    82    81   ar
    70    81    80    1
    71    62    63    1
    72   122   124   ar
    73   122   121   ar
    74   179   177   ar
    75   179   181   ar
    76   117   120    1
    77   117   118    1
    78   124   125   ar
    79    19    17   am
    80   177   176   ar
    81    77    80    1
    82    77    78    1
    83   120   121    1
    84    43    44    1
    85   121   123   ar
    86    63    64    2
    87    63    69   am
    88   119   118    2
    89   181   180   ar
    90   118   130   am
    91    17    18    2
    92    17    16    1
    93   125   123   ar
    94   125   127   ar
    95   173   174    2
    96   173   172    1
    97   176   175    1
    98   176   178   ar
    99    88    78   am
   100    88    89    1
   101    78    79    2
   102   123   126   ar
   103   108   105    1
   104   108   109    1
   105   175   172    1
   106    94    92    1
   107    69    70    1
   108   105   106    1
   109   105   104    1
   110   130   131    1
   111   109   110    1
   112   180   178   ar
   113   127   129   ar
   114    91    90    2
   115   106   107    2
   116   172   171    1
   117    16    15    1
   118    93    92    1
   119    75    73    1
   120   126   128   ar
   121    89    92    1
   122    89    90    1
   123   134   131    1
   124   104   110    1
   125   104    97   am
   126   131   132    1
   127    98    97    2
   128    90    95   am
   129    70    73    1
   130    70    71    1
   131   129   128   ar
   132   170   169   ar
   133   170   168   ar
   134    97    96    1
   135   169   167   ar
   136    73    74    1
   137    72    71    2
   138   168   166   ar
   139    95    96    1
   140   132   133    2
   141    96    99    1
   142   167   166   ar
   143   166   165    1
   144    13    14   ar
   145    13    11   ar
   146   160   158   ar
   147    99   100    1
   148    14    12   ar
   149   165   162    1
   150   103   101   am
   151   100   101    1
   152   145   143   ar
   153   145   144   ar
   154   158   157    1
   155   158   159   ar
   156    11     8   ar
   157   157   156    1
   158   143   141   ar
   159   101   102    2
   160   144   142   ar
   161    12    10   ar
   162   161   162    1
   163   161   154   am
   164   162   163    1
   165   156   153    1
   166   164   163    2
   167     8    10   ar
   168     8     6   ar
   169     3     4    2
   170     3     2    1
   171   153   154    1
   172   153   152    1
   173   141   140   ar
   174    10     9   ar
   175   154   155    2
   176   142   140   ar
   177     6     5    1
   178     6     7   ar
   179   140   139    1
   180     5     2    1
   181     2     1    1
   182   152   148   am
   183   149   148    2
   184     9     7   ar
   185   148   147    1
   186   138   137    2
   187   135   136    1
   188   139   136    1
   189   137   136    1
   190   137   146   am
   191   147   146    1
   192   147   150    1
   193   150   151    1
