@<TRIPOS>MOLECULE
tmp/1d7cA00.pdb
 83 78 0 0 0
SMALL
GASTEIGER

@<TRIPOS>ATOM
      1  N         55.1410   61.0430   31.9190 N.3     8  PRO8       -0.2102
      2  CA        55.5170   62.3980   32.3220 C.3     8  PRO8        0.1504
      3  C         56.8490   62.5110   33.0510 C.2     8  PRO8        0.2576
      4  O         57.3370   63.6260   33.2530 O.2     8  PRO8       -0.2718
      5  CB        54.4130   62.7870   33.3180 C.3     8  PRO8        0.0282
      6  CG        53.9940   61.4760   33.9010 C.3     8  PRO8        0.0208
      7  CD        54.0190   60.5250   32.7230 C.3     8  PRO8        0.0893
      8  N         57.4350   61.3920   33.4550 N.am    9  THR9       -0.1953
      9  CA        58.7310   61.4620   34.1370 C.3     9  THR9        0.1897
     10  C         59.8600   61.0780   33.1890 C.2     9  THR9        0.2313
     11  O         60.9260   61.6940   33.2190 O.2     9  THR9       -0.2863
     12  CB        58.7470   60.5510   35.3720 C.3     9  THR9        0.1794
     13  OG1       57.7180   60.9880   36.2670 O.3     9  THR9       -0.2208
     14  CG2       60.0650   60.6570   36.1190 C.3     9  THR9        0.0378
     15  N         43.3220   50.7570   38.2790 N.3    23  ASP23      -0.1239
     16  CA        44.1390   51.9130   37.9490 C.3    23  ASP23       0.1674
     17  C         45.5650   51.5330   37.5690 C.2    23  ASP23       0.2266
     18  O         46.5330   52.1850   37.9720 O.2    23  ASP23      -0.2867
     19  CB        44.1220   52.9380   39.1020 C.3    23  ASP23       0.1410
     20  CG        42.6880   53.5030   39.1740 C.2    23  ASP23       0.3668
     21  OD1       42.2890   54.1550   38.1920 O.co2  23  ASP23      -0.2456
     22  OD2       42.0160   53.2350   40.1820 O.co2  23  ASP23      -0.2456
     23  N         48.1590   51.1730   34.4090 N.3    25  THR25      -0.1218
     24  CA        48.4480   51.6480   33.0670 C.3    25  THR25       0.1862
     25  C         49.3290   50.6400   32.3340 C.2    25  THR25       0.2287
     26  O         50.3020   50.1560   32.9180 O.2    25  THR25      -0.2866
     27  CB        49.1540   53.0100   33.1180 C.3    25  THR25       0.1770
     28  OG1       48.2660   53.9490   33.7440 O.3    25  THR25      -0.2211
     29  CG2       49.4440   53.5270   31.7280 C.3    25  THR25       0.0375
     30  N         52.3390   50.3930   35.0870 N.3    48  VAL48      -0.1245
     31  CA        52.3350   51.3170   36.2180 C.3    48  VAL48       0.1561
     32  C         51.1800   50.8880   37.1140 C.2    48  VAL48       0.2260
     33  O         49.9980   51.0670   36.7850 O.2    48  VAL48      -0.2867
     34  CB        52.1650   52.7800   35.7870 C.3    48  VAL48       0.0252
     35  CG1       52.4190   53.7270   36.9520 C.3    48  VAL48       0.0019
     36  CG2       53.0860   53.1130   34.6110 C.3    48  VAL48       0.0019
     37  N         60.8820   51.9910   38.4200 N.3   108  THR108     -0.1218
     38  CA        60.8140   52.7130   39.6670 C.3   108  THR108      0.1862
     39  C         59.7700   52.0850   40.5700 C.2   108  THR108      0.2287
     40  O         58.6380   51.8200   40.1840 O.2   108  THR108     -0.2866
     41  CB        60.4050   54.1780   39.4310 C.3   108  THR108      0.1770
     42  OG1       61.3680   54.7250   38.5130 O.3   108  THR108     -0.2211
     43  CG2       60.4670   55.0400   40.6690 C.3   108  THR108      0.0375
     44  N         57.9970   52.8520   44.3320 N.3   110  ASN110     -0.1225
     45  CA        57.9550   53.7830   45.4670 C.3   110  ASN110      0.1785
     46  C         56.8970   53.3140   46.4510 C.2   110  ASN110      0.2598
     47  O         56.3940   52.1920   46.3880 O.2   110  ASN110     -0.2718
     48  CB        57.7380   55.2080   44.9690 C.3   110  ASN110      0.1169
     49  CG        56.4150   55.4160   44.2640 C.2   110  ASN110      0.2627
     50  OD1       55.4310   54.7340   44.5420 O.2   110  ASN110     -0.2716
     51  ND2       56.4030   56.3800   43.3500 N.am  110  ASN110     -0.0877
     52  N         56.5310   54.1750   47.3930 N.am  111  SER111     -0.1938
     53  CA        55.5870   53.7280   48.4150 C.3   111  SER111      0.2055
     54  C         54.1800   53.4980   47.8750 C.2   111  SER111      0.2644
     55  O         53.3950   52.7820   48.4890 O.2   111  SER111     -0.2714
     56  CB        55.5550   54.7810   49.5290 C.3   111  SER111      0.2130
     57  OG        55.1010   56.0340   49.0460 O.3   111  SER111     -0.2179
     58  N         53.8070   54.0760   46.7340 N.am  112  THR112     -0.1936
     59  CA        52.4100   53.8810   46.3260 C.3   112  THR112      0.2028
     60  C         52.2380   53.0770   45.0450 C.2   112  THR112      0.2642
     61  O         51.1720   52.5260   44.7700 O.2   112  THR112     -0.2714
     62  CB        51.7310   55.2450   46.1010 C.3   112  THR112      0.1808
     63  OG1       52.4750   55.9530   45.1070 O.3   112  THR112     -0.2208
     64  CG2       51.7460   56.0720   47.3770 C.3   112  THR112      0.0379
     65  N         53.2750   53.0000   44.2280 N.am  113  HIS113     -0.1973
     66  CA        53.1800   52.3540   42.9280 C.3   113  HIS113      0.1656
     67  C         54.4520   51.5870   42.5780 C.2   113  HIS113      0.2291
     68  O         55.5490   51.9350   43.0240 O.2   113  HIS113     -0.2864
     69  CB        52.9600   53.3950   41.8250 C.3   113  HIS113      0.0771
     70  CG        51.6250   54.0630   41.8210 C.ar  113  HIS113      0.0820
     71  ND1       51.2710   55.0540   42.7100 N.ar  113  HIS113     -0.2267
     72  CD2       50.5420   53.8650   41.0150 C.ar  113  HIS113      0.1154
     73  CE1       50.0320   55.4370   42.4520 C.ar  113  HIS113      0.1986
     74  NE2       49.5640   54.7350   41.4290 N.ar  113  HIS113     -0.2212
     75  N         56.4080   50.7210   39.0150 N.3   115  LYS115     -0.1245
     76  CA        56.4330   51.0700   37.6010 C.3   115  LYS115      0.1561
     77  C         57.4750   50.2340   36.8750 C.2   115  LYS115      0.2260
     78  O         58.6780   50.4990   36.9810 O.2   115  LYS115     -0.2867
     79  CB        56.7220   52.5720   37.4230 C.3   115  LYS115      0.0271
     80  CG        56.8610   53.0110   35.9800 C.3   115  LYS115      0.0035
     81  CD        56.9220   54.5240   35.8990 C.3   115  LYS115      0.0206
     82  CE        57.8530   54.9680   34.7920 C.3   115  LYS115      0.1093
     83  NZ        57.6480   56.4250   34.4990 N.3   115  LYS115     -0.1314
@<TRIPOS>BOND
     1    29    27    1
     2     1     2    1
     3     1     7    1
     4     2     3    1
     5     2     5    1
     6    25    26    2
     7    25    24    1
     8     7     6    1
     9     3     4    2
    10     3     8   am
    11    24    27    1
    12    24    23    1
    13    27    28    1
    14    10    11    2
    15    10     9    1
    16     5     6    1
    17     8     9    1
    18     9    12    1
    19    83    82    1
    20    36    34    1
    21    82    81    1
    22    30    31    1
    23    12    14    1
    24    12    13    1
    25    34    31    1
    26    34    35    1
    27    81    80    1
    28    80    79    1
    29    31    32    1
    30    33    32    2
    31    77    78    2
    32    77    76    1
    33    79    76    1
    34    17    16    1
    35    17    18    2
    36    76    75    1
    37    16    15    1
    38    16    19    1
    39    21    20   ar
    40    37    38    1
    41    42    41    1
    42    19    20    1
    43    20    22   ar
    44    41    38    1
    45    41    43    1
    46    38    39    1
    47    40    39    2
    48    72    74   ar
    49    72    70   ar
    50    74    73   ar
    51    70    69    1
    52    70    71   ar
    53    69    66    1
    54    73    71   ar
    55    67    66    1
    56    67    68    2
    57    66    65    1
    58    51    49   am
    59    65    60   am
    60    49    50    2
    61    49    48    1
    62    44    45    1
    63    61    60    2
    64    48    45    1
    65    60    59    1
    66    63    62    1
    67    45    46    1
    68    62    59    1
    69    62    64    1
    70    59    58    1
    71    47    46    2
    72    46    52   am
    73    58    54   am
    74    52    53    1
    75    54    53    1
    76    54    55    2
    77    53    56    1
    78    57    56    1
