@<TRIPOS>MOLECULE
tmp/1d7oA01.pdb
 126 121 0 0 0
SMALL
GASTEIGER

@<TRIPOS>ATOM
      1  N          7.0740   14.1120   40.0070 N.3   127  LEU127     -0.1231
      2  CA         6.1820   14.2350   38.8860 C.3   127  LEU127      0.1693
      3  C          5.0620   13.2050   38.9440 C.2   127  LEU127      0.2592
      4  O          5.1740   12.1650   39.5890 O.2   127  LEU127     -0.2718
      5  CB         7.0080   14.1360   37.6070 C.3   127  LEU127      0.0284
      6  CG         7.7010   12.8180   37.3420 C.3   127  LEU127      0.0019
      7  CD1        6.7160   11.9380   36.6110 C.3   127  LEU127      0.0001
      8  CD2        8.9770   13.0030   36.5520 C.3   127  LEU127      0.0001
      9  N          3.9610   13.5270   38.2740 N.am  128  ALA128     -0.1966
     10  CA         2.8190   12.6670   38.2250 C.3   128  ALA128      0.1728
     11  C          1.9460   13.1590   37.0850 C.2   128  ALA128      0.2616
     12  O          2.0310   14.3140   36.6580 O.2   128  ALA128     -0.2715
     13  CB         2.0610   12.7840   39.4970 C.3   128  ALA128      0.0334
     14  N          1.0730   12.2970   36.6040 N.am  129  ASN129     -0.1958
     15  CA         0.1990   12.7260   35.5310 C.3   129  ASN129      0.1819
     16  C         -0.8670   11.6650   35.4230 C.2   129  ASN129      0.2621
     17  O         -0.5710   10.4940   35.5690 O.2   129  ASN129     -0.2715
     18  CB         1.0020   12.8530   34.2310 C.3   129  ASN129      0.1195
     19  CG         0.2590   13.6050   33.1610 C.2   129  ASN129      0.2630
     20  OD1       -0.8140   14.1680   33.3950 O.2   129  ASN129     -0.2716
     21  ND2        0.8120   13.5900   31.9620 N.am  129  ASN129     -0.0877
     22  N         -2.1110   12.0630   35.1980 N.am  130  GLY130     -0.1954
     23  CA        -3.1770   11.0850   35.0990 C.3   130  GLY130      0.1869
     24  C         -4.3340   11.7520   34.3940 C.2   130  GLY130      0.2309
     25  O         -5.0650   12.5660   34.9590 O.2   130  GLY130     -0.2863
     26  N         -7.9330   11.5290   36.0940 N.3   133  VAL133     -0.1245
     27  CA        -7.9530   11.8280   37.5010 C.3   133  VAL133      0.1561
     28  C         -9.2930   12.3210   38.0330 C.2   133  VAL133      0.2260
     29  O         -9.6300   12.1280   39.1890 O.2   133  VAL133     -0.2867
     30  CB        -6.8190   12.7420   37.8530 C.3   133  VAL133      0.0252
     31  CG1       -6.9830   14.0580   37.1310 C.3   133  VAL133      0.0019
     32  CG2       -6.7920   12.9770   39.3520 C.3   133  VAL133      0.0019
     33  N          4.6140   11.1940   47.5020 N.3   177  THR177     -0.1203
     34  CA         3.3970   10.4140   47.3740 C.3   177  THR177      0.1994
     35  C          2.2390   11.1590   48.0790 C.2   177  THR177      0.2617
     36  O          2.3830   12.3380   48.4700 O.2   177  THR177     -0.2717
     37  CB         3.6100    9.0000   47.8880 C.3   177  THR177      0.1784
     38  OG1        2.4320    8.2390   47.6240 O.3   177  THR177     -0.2211
     39  CG2        3.9080    9.0070   49.4100 C.3   177  THR177      0.0376
     40  N          1.1030   10.4890   48.2500 N.am  178  TYR178     -0.1975
     41  CA        -0.0330   11.1290   48.8810 C.3   178  TYR178      0.1639
     42  C         -0.8540   10.0210   49.4930 C.2   178  TYR178      0.2290
     43  O         -0.8680    8.9200   48.9660 O.2   178  TYR178     -0.2864
     44  CB        -0.8080   11.9100   47.8240 C.3   178  TYR178      0.0560
     45  CG        -2.0480   12.5500   48.3770 C.ar  178  TYR178     -0.0198
     46  CD1       -1.9560   13.4730   49.4190 C.ar  178  TYR178     -0.0009
     47  CD2       -3.2970   12.2290   47.8710 C.ar  178  TYR178     -0.0009
     48  CE1       -3.0870   14.0700   49.9490 C.ar  178  TYR178      0.0417
     49  CE2       -4.4380   12.8130   48.3810 C.ar  178  TYR178      0.0417
     50  CZ        -4.3210   13.7300   49.4230 C.ar  178  TYR178      0.1957
     51  OH        -5.4610   14.2880   49.9500 O.3   178  TYR178     -0.2866
     52  N         -9.6850   11.7710   44.1820 N.3   188  TYR188     -0.1241
     53  CA        -8.3240   11.5360   43.6440 C.3   188  TYR188      0.1605
     54  C         -8.5280   10.2600   42.8030 C.2   188  TYR188      0.2264
     55  O         -8.2450    9.1260   43.2470 O.2   188  TYR188     -0.2867
     56  CB        -7.3990   11.2960   44.8400 C.3   188  TYR188      0.0534
     57  CG        -5.9330   11.4370   44.5740 C.ar  188  TYR188     -0.0201
     58  CD1       -5.3470   12.6920   44.5050 C.ar  188  TYR188     -0.0009
     59  CD2       -5.1250   10.3080   44.4100 C.ar  188  TYR188     -0.0009
     60  CE1       -3.9970   12.8090   44.3030 C.ar  188  TYR188      0.0417
     61  CE2       -3.7790   10.4180   44.1870 C.ar  188  TYR188      0.0417
     62  CZ        -3.2290   11.6660   44.1430 C.ar  188  TYR188      0.1957
     63  OH        -1.8900   11.8000   43.9330 O.3   188  TYR188     -0.2866
     64  N         -4.9850    7.3090   40.0600 N.3   192  MET192     -0.1245
     65  CA        -3.8720    8.0270   40.6950 C.3   192  MET192      0.1570
     66  C         -3.6600    7.4350   42.1070 C.2   192  MET192      0.2261
     67  O         -2.5170    7.3170   42.5650 O.2   192  MET192     -0.2867
     68  CB        -4.1160    9.5390   40.7800 C.3   192  MET192      0.0387
     69  CG        -3.8040   10.3010   39.4960 C.3   192  MET192      0.0595
     70  SD        -2.0540   10.1070   39.0080 S.3   192  MET192     -0.1393
     71  CE        -1.3130   10.4920   40.4870 C.3   192  MET192      0.0692
     72  N         -0.1110    5.8900   43.3750 N.3   196  LYS196     -0.1245
     73  CA         0.6460    6.2310   44.5730 C.3   196  LYS196      0.1561
     74  C          0.9080    4.9680   45.4310 C.2   196  LYS196      0.2260
     75  O          1.9740    4.8310   46.0530 O.2   196  LYS196     -0.2867
     76  CB        -0.0630    7.3080   45.3840 C.3   196  LYS196      0.0271
     77  CG        -0.0840    8.6560   44.6780 C.3   196  LYS196      0.0035
     78  CD         1.3040    9.1080   44.2650 C.3   196  LYS196      0.0206
     79  CE         1.2330   10.6140   43.8460 C.3   196  LYS196      0.1093
     80  NZ         2.5790   11.1820   43.4930 N.3   196  LYS196     -0.1314
     81  N          1.1460   16.7260   52.3950 N.3   224  GLY224     -0.1210
     82  CA        -0.2330   17.2320   52.5350 C.3   224  GLY224      0.1940
     83  C         -0.5310   18.1660   51.3290 C.2   224  GLY224      0.2454
     84  O          0.3280   18.3430   50.4940 O.2   224  GLY224     -0.2732
     85  N         -1.7300   18.7440   51.2420 N.am  225  PRO225     -0.2717
     86  CA        -2.1060   19.6270   50.1310 C.3   225  PRO225      0.1535
     87  C         -1.3310   20.9170   50.1930 C.2   225  PRO225      0.2598
     88  O         -1.2200   21.5600   51.2230 O.2   225  PRO225     -0.2715
     89  CB        -3.6030   19.8580   50.3420 C.3   225  PRO225      0.0310
     90  CG        -3.8030   19.6590   51.7780 C.3   225  PRO225      0.0237
     91  CD        -2.8460   18.5680   52.1820 C.3   225  PRO225      0.0939
     92  N         -0.7590   21.3020   49.0820 N.am  226  LEU226     -0.1978
     93  CA         0.0370   22.4980   49.1170 C.3   226  LEU226      0.1596
     94  C         -0.6340   23.8250   48.7910 C.2   226  LEU226      0.2287
     95  O         -1.2890   23.9430   47.7490 O.2   226  LEU226     -0.2864
     96  CB         1.2430   22.2780   48.2340 C.3   226  LEU226      0.0297
     97  CG         2.0720   23.4970   47.8800 C.3   226  LEU226      0.0022
     98  CD1        2.6060   24.0360   49.1710 C.3   226  LEU226      0.0001
     99  CD2        3.2170   22.9970   46.9700 C.3   226  LEU226      0.0001
    100  N        -10.7450   20.4180   44.0380 N.3   236  PHE236     -0.1227
    101  CA       -10.2210   19.3740   44.9080 C.3   236  PHE236      0.1736
    102  C         -9.1600   19.8960   45.9040 C.2   236  PHE236      0.2595
    103  O         -9.2590   19.6870   47.1190 O.2   236  PHE236     -0.2718
    104  CB        -9.6170   18.2720   44.0520 C.3   236  PHE236      0.0547
    105  CG        -8.9170   17.2060   44.8760 C.ar  236  PHE236     -0.0202
    106  CD1       -9.6670   16.2560   45.5790 C.ar  236  PHE236     -0.0042
    107  CD2       -7.5250   17.1870   44.9220 C.ar  236  PHE236     -0.0042
    108  CE1       -9.0130   15.2780   46.3340 C.ar  236  PHE236     -0.0003
    109  CE2       -6.8690   16.2090   45.6760 C.ar  236  PHE236     -0.0003
    110  CZ        -7.6130   15.2540   46.3820 C.ar  236  PHE236     -0.0000
    111  N         -8.1480   20.5780   45.4000 N.am  237  ILE237     -0.1980
    112  CA        -7.0210   21.0300   46.2490 C.3   237  ILE237      0.1595
    113  C         -7.4360   22.1140   47.2670 C.2   237  ILE237      0.2287
    114  O         -7.0120   22.0960   48.4320 O.2   237  ILE237     -0.2864
    115  CB        -5.8730   21.5340   45.3800 C.3   237  ILE237      0.0276
    116  CG1       -5.2810   20.4160   44.5170 C.3   237  ILE237      0.0022
    117  CG2       -4.7100   22.1010   46.2010 C.3   237  ILE237      0.0022
    118  CD1       -4.1160   20.8760   43.6430 C.3   237  ILE237      0.0001
    119  N         -9.2270   20.6340   50.1250 N.3   240  MET240     -0.1245
    120  CA        -8.3420   19.7990   50.9310 C.3   240  MET240      0.1570
    121  C         -7.4370   20.6230   51.8120 C.2   240  MET240      0.2261
    122  O         -7.0110   20.1960   52.8690 O.2   240  MET240     -0.2867
    123  CB        -7.5460   18.8460   50.0410 C.3   240  MET240      0.0387
    124  CG        -8.3900   17.8690   49.2660 C.3   240  MET240      0.0595
    125  SD        -9.3790   16.7720   50.3500 S.3   240  MET240     -0.1393
    126  CE        -8.0390   16.4280   51.4940 C.3   240  MET240      0.0692
@<TRIPOS>BOND
     1    21    19   am
     2    19    20    2
     3    19    18    1
     4    18    15    1
     5    24    25    2
     6    24    23    1
     7    23    22    1
     8    22    16   am
     9    16    15    1
    10    16    17    2
    11    15    14    1
    12    26    27    1
    13     8     6    1
    14    14    11   am
    15     7     6    1
    16    12    11    2
    17    11    10    1
    18    31    30    1
    19     6     5    1
    20    27    30    1
    21    27    28    1
    22     5     2    1
    23    30    32    1
    24    28    29    2
    25    10     9    1
    26    10    13    1
    27     9     3   am
    28     2     3    1
    29     2     1    1
    30     3     4    2
    31    70    69    1
    32    70    71    1
    33    69    68    1
    34    64    65    1
    35    65    68    1
    36    65    66    1
    37    66    67    2
    38    54    55    2
    39    54    53    1
    40    72    73    1
    41    80    79    1
    42   118   116    1
    43    53    52    1
    44    53    56    1
    45    79    78    1
    46    63    62    1
    47   100   101    1
    48   104   105    1
    49   104   101    1
    50    62    61   ar
    51    62    60   ar
    52    61    59   ar
    53    78    77    1
    54    60    58   ar
    55    59    57   ar
    56    58    57   ar
    57   116   115    1
    58    73    76    1
    59    73    74    1
    60    57    56    1
    61    77    76    1
    62   105   107   ar
    63   105   106   ar
    64   101   102    1
    65   107   109   ar
    66   115   117    1
    67   115   112    1
    68   111   102   am
    69   111   112    1
    70    74    75    2
    71   106   108   ar
    72   109   110   ar
    73   102   103    2
    74   112   113    1
    75   108   110   ar
    76    99    97    1
    77   113   114    2
    78    34    33    1
    79    34    37    1
    80    34    35    1
    81    38    37    1
    82    95    94    2
    83    44    45    1
    84    44    41    1
    85    47    45   ar
    86    47    49   ar
    87    97    96    1
    88    97    98    1
    89    37    39    1
    90    35    40   am
    91    35    36    2
    92    96    93    1
    93    40    41    1
    94    45    46   ar
    95    49    50   ar
    96    94    93    1
    97    41    42    1
    98    43    42    2
    99    92    93    1
   100    92    87   am
   101   124   123    1
   102   124   125    1
   103    46    48   ar
   104    50    48   ar
   105    50    51    1
   106   123   120    1
   107   119   120    1
   108    86    87    1
   109    86    89    1
   110    86    85    1
   111    87    88    2
   112    89    90    1
   113   125   126    1
   114    84    83    2
   115   120   121    1
   116    85    83   am
   117    85    91    1
   118    83    82    1
   119    90    91    1
   120   121   122    2
   121    81    82    1
