@<TRIPOS>MOLECULE
tmp/1d7rA00.pdb
 146 139 0 0 0
SMALL
GASTEIGER

@<TRIPOS>ATOM
      1  N         11.5760   44.7630   21.4480 N.3    50  GLN50      -0.1231
      2  CA        12.2820   46.0300   21.3160 C.3    50  GLN50       0.1698
      3  C         11.8290   46.6090   19.9800 C.2    50  GLN50       0.2592
      4  O         12.6210   47.0200   19.1380 O.2    50  GLN50      -0.2718
      5  CB        13.8190   45.8400   21.4480 C.3    50  GLN50       0.0381
      6  CG        14.6170   47.1250   21.7700 C.3    50  GLN50       0.0905
      7  CD        14.0430   47.9430   22.9220 C.2    50  GLN50       0.2608
      8  OE1       13.9490   47.4630   24.0420 O.2    50  GLN50      -0.2717
      9  NE2       13.5810   49.1500   22.6270 N.am   50  GLN50      -0.0878
     10  N         10.5070   46.5670   19.7920 N.am   51  MET51      -0.1979
     11  CA         9.8430   47.0320   18.5910 C.3    51  MET51       0.1605
     12  C         10.2070   46.2390   17.3690 C.2    51  MET51       0.2287
     13  O         10.2700   46.8100   16.2870 O.2    51  MET51      -0.2864
     14  CB        10.1160   48.5180   18.3290 C.3    51  MET51       0.0413
     15  CG         9.3090   49.4380   19.2160 C.3    51  MET51       0.0598
     16  SD        10.2520   50.1300   20.5580 S.3    51  MET51      -0.1393
     17  CE         8.8590   50.8950   21.4830 C.3    51  MET51       0.0692
     18  N         22.5830   44.4660   12.0190 N.3   108  THR108     -0.1203
     19  CA        21.8950   45.4040   12.8930 C.3   108  THR108      0.1994
     20  C         21.4890   46.7500   12.2640 C.2   108  THR108      0.2618
     21  O         22.0100   47.1890   11.2280 O.2   108  THR108     -0.2717
     22  CB        22.6930   45.6730   14.1960 C.3   108  THR108      0.1784
     23  OG1       23.7250   46.6360   13.9470 O.3   108  THR108     -0.2211
     24  CG2       23.2890   44.3810   14.7480 C.3   108  THR108      0.0376
     25  N         20.5840   47.4370   12.9540 N.am  109  GLY109     -0.1942
     26  CA        20.1360   48.7540   12.5260 C.3   109  GLY109      0.2014
     27  C         21.2970   49.7450   12.4430 C.2   109  GLY109      0.2638
     28  O         21.4890   50.4110   11.4210 O.2   109  GLY109     -0.2714
     29  N         22.0750   49.8420   13.5280 N.am  110  ALA110     -0.1977
     30  CA        23.2150   50.7530   13.5400 C.3   110  ALA110      0.1597
     31  C         24.1510   50.4520   12.3910 C.2   110  ALA110      0.2287
     32  O         24.6580   51.3580   11.7410 O.2   110  ALA110     -0.2864
     33  CB        23.9590   50.7000   14.8730 C.3   110  ALA110      0.0319
     34  N         22.7570   51.6940    9.1730 N.3   113  ASN113     -0.1240
     35  CA        22.9970   53.1170    9.0080 C.3   113  ASN113      0.1653
     36  C         24.4610   53.4480    8.7110 C.2   113  ASN113      0.2266
     37  O         24.7560   54.3730    7.9530 O.2   113  ASN113     -0.2867
     38  CB        22.4700   53.8950   10.1900 C.3   113  ASN113      0.1155
     39  CG        20.9920   53.8850   10.2240 C.2   113  ASN113      0.2627
     40  OD1       20.3600   53.8830    9.1700 O.2   113  ASN113     -0.2716
     41  ND2       20.4110   53.7920   11.4180 N.am  113  ASN113     -0.0877
     42  N         17.6220   59.0720   16.5340 N.3   136  TRP136     -0.1227
     43  CA        18.1670   57.8540   17.1230 C.3   136  TRP136      0.1737
     44  C         18.5180   56.8920   16.0120 C.2   136  TRP136      0.2595
     45  O         17.6410   56.3340   15.3870 O.2   136  TRP136     -0.2718
     46  CB        17.2760   57.1480   18.1700 C.3   136  TRP136      0.0564
     47  CG        17.9990   55.9360   18.7060 C.ar  136  TRP136      0.0003
     48  CD1       18.2090   54.7540   18.0480 C.ar  136  TRP136      0.0946
     49  CD2       18.7240   55.8290   19.9480 C.ar  136  TRP136      0.0152
     50  NE1       18.9980   53.9110   18.7980 N.ar  136  TRP136     -0.2442
     51  CE2       19.3200   54.5360   19.9770 C.ar  136  TRP136      0.0810
     52  CE3       18.9370   56.6950   21.0350 C.ar  136  TRP136      0.0012
     53  CZ2       20.1000   54.0860   21.0690 C.ar  136  TRP136      0.0191
     54  CZ3       19.7140   56.2450   22.1120 C.ar  136  TRP136      0.0001
     55  CH2       20.2830   54.9520   22.1200 C.ar  136  TRP136      0.0015
     56  N         19.8050   56.6780   15.7780 N.am  137  HIS137     -0.1961
     57  CA        20.2130   55.7890   14.7210 C.3   137  HIS137      0.1787
     58  C         21.0480   54.6240   15.1520 C.2   137  HIS137      0.2621
     59  O         21.3440   53.7740   14.3360 O.2   137  HIS137     -0.2715
     60  CB        20.9490   56.5730   13.6190 C.3   137  HIS137      0.0785
     61  CG        20.0800   57.5920   12.9730 C.ar  137  HIS137      0.0821
     62  ND1       18.9360   57.2430   12.2710 N.ar  137  HIS137     -0.2267
     63  CD2       20.1260   58.9490   13.0030 C.ar  137  HIS137      0.1154
     64  CE1       18.3370   58.3520   11.8750 C.ar  137  HIS137      0.1986
     65  NE2       19.0400   59.3960   12.2980 N.ar  137  HIS137     -0.2212
     66  N         21.4430   54.5740   16.4180 N.am  138  GLY138     -0.1940
     67  CA        22.2800   53.4690   16.8700 C.3   138  GLY138      0.2014
     68  C         23.4100   53.9070   17.7990 C.2   138  GLY138      0.2638
     69  O         23.6230   55.0960   18.0340 O.2   138  GLY138     -0.2714
     70  N         24.1230   52.9190   18.3200 N.am  139  MET139     -0.1976
     71  CA        25.1850   53.1610   19.2830 C.3   139  MET139      0.1605
     72  C         26.5570   53.1280   18.7220 C.2   139  MET139      0.2287
     73  O         27.4970   53.4890   19.4200 O.2   139  MET139     -0.2864
     74  CB        25.1470   52.1170   20.3930 C.3   139  MET139      0.0413
     75  CG        23.8050   51.9830   21.0820 C.3   139  MET139      0.0598
     76  SD        23.5930   53.2700   22.3050 S.3   139  MET139     -0.1393
     77  CE        25.3230   53.7370   22.6500 C.3   139  MET139      0.0692
     78  N         14.5800   59.7450   10.1950 N.3   208  GLU208     -0.1245
     79  CA        13.5360   58.7550   10.4390 C.3   208  GLU208      0.1567
     80  C         12.2520   59.4580    9.9290 C.2   208  GLU208      0.2260
     81  O         12.0690   60.6680   10.1230 O.2   208  GLU208     -0.2867
     82  CB        13.3550   58.4420   11.9460 C.3   208  GLU208      0.0388
     83  CG        14.5720   57.8360   12.6480 C.3   208  GLU208      0.1160
     84  CD        14.5920   58.1690   14.1140 C.2   208  GLU208      0.3649
     85  OE1       15.2820   59.0990   14.5330 O.co2 208  GLU208     -0.2457
     86  OE2       13.8390   57.4600   14.8580 O.co2 208  GLU208     -0.2457
     87  N         11.0130   57.7970   16.5130 N.3   212  SER212     -0.1202
     88  CA        10.4920   56.9680   17.5990 C.3   212  SER212      0.2020
     89  C         11.1100   57.3370   18.9350 C.2   212  SER212      0.2619
     90  O         10.4460   57.8520   19.8270 O.2   212  SER212     -0.2717
     91  CB        10.6800   55.4840   17.2900 C.3   212  SER212      0.2103
     92  OG        10.0100   54.6710   18.2410 O.3   212  SER212     -0.2182
     93  N         12.3950   57.0780   19.0640 N.am  213  SER213     -0.1951
     94  CA        13.0800   57.4060   20.2870 C.3   213  SER213      0.1924
     95  C         12.8670   58.8840   20.6190 C.2   213  SER213      0.2314
     96  O         12.8040   59.2660   21.7870 O.2   213  SER213     -0.2863
     97  CB        14.5700   57.0970   20.1400 C.3   213  SER213      0.2116
     98  OG        14.7850   55.7020   20.1690 O.3   213  SER213     -0.2180
     99  N         15.9810   56.2670    7.4510 N.3   241  ASP241     -0.1239
    100  CA        16.1350   55.1790    8.4130 C.3   241  ASP241      0.1674
    101  C         14.7620   54.7080    8.8130 C.2   241  ASP241      0.2266
    102  O         14.1000   55.3480    9.6190 O.2   241  ASP241     -0.2867
    103  CB        16.9350   55.6730    9.6450 C.3   241  ASP241      0.1410
    104  CG        17.0750   54.6180   10.7400 C.2   241  ASP241      0.3668
    105  OD1       16.5320   53.4990   10.6330 O.co2 241  ASP241     -0.2456
    106  OD2       17.7970   54.9580   11.7510 O.co2 241  ASP241     -0.2456
    107  N         14.0340   51.8020   10.3360 N.3   243  ALA243     -0.1231
    108  CA        14.1600   50.7010   11.2920 C.3   243  ALA243      0.1694
    109  C         12.8200   50.4200   12.0230 C.2   243  ALA243      0.2591
    110  O         12.4420   49.2710   12.2740 O.2   243  ALA243     -0.2718
    111  CB        15.2830   51.0130   12.3210 C.3   243  ALA243      0.0304
    112  N         12.0990   51.4680   12.3690 N.am  244  GLN244     -0.1979
    113  CA        10.8750   51.2540   13.0960 C.3   244  GLN244      0.1601
    114  C          9.6500   51.3880   12.2490 C.2   244  GLN244      0.2287
    115  O          8.6140   50.7980   12.5470 O.2   244  GLN244     -0.2864
    116  CB        10.8050   52.2490   14.2460 C.3   244  GLN244      0.0394
    117  CG        11.8470   51.9530   15.3090 C.3   244  GLN244      0.0908
    118  CD        11.3370   52.1790   16.7080 C.2   244  GLN244      0.2608
    119  OE1       10.1390   52.3700   16.8990 O.2   244  GLN244     -0.2717
    120  NE2       12.2190   52.1080   17.6960 N.am  244  GLN244     -0.0878
    121  N         15.7580   47.2320    9.3810 N.3   269  SER269     -0.1202
    122  CA        16.3850   46.3530   10.3500 C.3   269  SER269      0.2020
    123  C         15.4720   45.6230   11.3400 C.2   269  SER269      0.2618
    124  O         15.3100   44.4070   11.2560 O.2   269  SER269     -0.2717
    125  CB        17.4490   47.1280   11.1120 C.3   269  SER269      0.2103
    126  OG        16.8200   48.2280   11.7650 O.3   269  SER269     -0.2182
    127  N         14.9650   46.3550   12.3330 N.am  270  LYS270     -0.1979
    128  CA        14.1340   45.7890   13.4050 C.3   270  LYS270      0.1596
    129  C         12.9890   44.9220   12.9060 C.2   270  LYS270      0.2287
    130  O         12.9550   43.7240   13.1490 O.2   270  LYS270     -0.2864
    131  CB        13.5490   46.8950   14.2570 C.3   270  LYS270      0.0298
    132  CG        14.5600   47.7880   14.9340 C.3   270  LYS270      0.0038
    133  CD        13.8660   48.6990   15.9430 C.3   270  LYS270      0.0206
    134  CE        14.8350   49.3200   16.9410 C.3   270  LYS270      0.1093
    135  NZ        14.2520   49.4060   18.3010 N.3   270  LYS270     -0.1314
    136  N          5.5510   54.9390   23.9260 N.3   404  ARG404     -0.1245
    137  CA         5.7100   54.4710   22.5540 C.3   404  ARG404      0.1563
    138  C          4.9630   53.1410   22.4440 C.2   404  ARG404      0.2260
    139  O          5.3570   52.1360   23.0130 O.2   404  ARG404     -0.2867
    140  CB         7.1960   54.3070   22.1710 C.3   404  ARG404      0.0307
    141  CG         7.9930   55.6210   22.1790 C.3   404  ARG404      0.0489
    142  CD         9.3450   55.5270   21.4390 C.3   404  ARG404      0.2205
    143  NE        10.2870   54.6450   22.1210 N.pl3 404  ARG404     -0.0865
    144  CZ        11.2640   53.9600   21.5220 C.cat 404  ARG404      0.5346
    145  NH1       11.4620   54.0500   20.2180 N.pl3 404  ARG404      0.1354
    146  NH2       12.0530   53.1710   22.2550 N.pl3 404  ARG404      0.1354
@<TRIPOS>BOND
     1    99   100    1
     2    37    36    2
     3   100   101    1
     4   100   103    1
     5    36    35    1
     6   101   102    2
     7    35    34    1
     8    35    38    1
     9    40    39    2
    10   121   122    1
    11   103   104    1
    12    80    81    2
    13    80    79    1
    14    38    39    1
    15    78    79    1
    16    39    41   am
    17   107   108    1
    18   122   125    1
    19   122   123    1
    20    79    82    1
    21   105   104   ar
    22   104   106   ar
    23   125   126    1
    24    21    20    2
    25   124   123    2
    26   108   109    1
    27   108   111    1
    28   123   127   am
    29    28    27    2
    30    32    31    2
    31    64    62   ar
    32    64    65   ar
    33    82    83    1
    34    18    19    1
    35   109   110    2
    36   109   112   am
    37   114   115    2
    38   114   113    1
    39    20    19    1
    40    20    25   am
    41    62    61   ar
    42    65    63   ar
    43   127   128    1
    44   112   113    1
    45    31    30    1
    46    27    26    1
    47    27    29   am
    48    26    25    1
    49    83    84    1
    50    19    22    1
    51   129   130    2
    52   129   128    1
    53    61    63   ar
    54    61    60    1
    55   113   116    1
    56   128   131    1
    57    29    30    1
    58    30    33    1
    59    60    57    1
    60    23    22    1
    61    84    85   ar
    62    84    86   ar
    63    22    24    1
    64   116   117    1
    65   131   132    1
    66    59    58    2
    67    57    58    1
    68    57    56    1
    69   132   133    1
    70    58    66   am
    71   117   118    1
    72    45    44    2
    73    56    44   am
    74   133   134    1
    75    44    43    1
    76    13    12    2
    77    66    67    1
    78    87    88    1
    79    42    43    1
    80   118   119    2
    81   118   120   am
    82    67    68    1
    83   134   135    1
    84    43    46    1
    85    91    88    1
    86    91    92    1
    87    12    11    1
    88    88    89    1
    89    68    69    2
    90    68    70   am
    91    48    47   ar
    92    48    50   ar
    93    46    47    1
    94    70    71    1
    95    14    11    1
    96    14    15    1
    97    11    10    1
    98    47    49   ar
    99    72    71    1
   100    72    73    2
   101    50    51   ar
   102    89    93   am
   103    89    90    2
   104    93    94    1
   105     4     3    2
   106    15    16    1
   107    71    74    1
   108    10     3   am
   109    49    51   ar
   110    49    52   ar
   111    51    53   ar
   112     3     2    1
   113    97    98    1
   114    97    94    1
   115   145   144    1
   116    94    95    1
   117    74    75    1
   118    16    17    1
   119    95    96    2
   120    52    54   ar
   121    53    55   ar
   122    75    76    1
   123     2     1    1
   124     2     5    1
   125   142   143    1
   126   142   141    1
   127     5     6    1
   128   144   143    2
   129   144   146    1
   130     6     7    1
   131    54    55   ar
   132   140   141    1
   133   140   137    1
   134    76    77    1
   135   138   137    1
   136   138   139    2
   137   137   136    1
   138     9     7   am
   139     7     8    2
