@<TRIPOS>MOLECULE
tmp/1d7uA00.pdb
 140 133 0 0 0
SMALL
GASTEIGER

@<TRIPOS>ATOM
      1  N         11.5970   45.0250   21.4560 N.3    50  GLN50      -0.1231
      2  CA        12.2870   46.2800   21.2620 C.3    50  GLN50       0.1698
      3  C         11.8290   46.7710   19.8950 C.2    50  GLN50       0.2592
      4  O         12.6170   47.1500   19.0420 O.2    50  GLN50      -0.2718
      5  CB        13.8080   46.0940   21.3590 C.3    50  GLN50       0.0381
      6  CG        14.6080   47.3480   21.7580 C.3    50  GLN50       0.0905
      7  CD        14.0960   48.0670   23.0020 C.2    50  GLN50       0.2608
      8  OE1       13.7950   49.2560   22.9320 O.2    50  GLN50      -0.2717
      9  NE2       14.0560   47.3800   24.1320 N.am   50  GLN50      -0.0878
     10  N         10.5040   46.7190   19.7100 N.am   51  MET51      -0.1979
     11  CA         9.8010   47.1070   18.4830 C.3    51  MET51       0.1605
     12  C         10.1910   46.2790   17.2710 C.2    51  MET51       0.2287
     13  O         10.2880   46.7950   16.1600 O.2    51  MET51      -0.2864
     14  CB         9.9460   48.6160   18.1940 C.3    51  MET51       0.0413
     15  CG         9.1070   49.4930   19.1190 C.3    51  MET51       0.0598
     16  SD        10.1080   50.4270   20.2690 S.3    51  MET51      -0.1393
     17  CE         8.8860   51.1960   21.3160 C.3    51  MET51       0.0692
     18  N         22.6090   44.6610   12.0040 N.3   108  THR108     -0.1203
     19  CA        21.8800   45.5370   12.9390 C.3   108  THR108      0.1994
     20  C         21.5180   46.8980   12.3680 C.2   108  THR108      0.2618
     21  O         22.0400   47.3310   11.3390 O.2   108  THR108     -0.2717
     22  CB        22.6730   45.8210   14.2220 C.3   108  THR108      0.1784
     23  OG1       23.7060   46.7490   13.9210 O.3   108  THR108     -0.2211
     24  CG2       23.2590   44.5480   14.8310 C.3   108  THR108      0.0376
     25  N         20.6600   47.6030   13.0940 N.am  109  GLY109     -0.1942
     26  CA        20.2440   48.9380   12.6890 C.3   109  GLY109      0.2014
     27  C         21.4120   49.9200   12.5820 C.2   109  GLY109      0.2638
     28  O         21.5550   50.6310   11.5820 O.2   109  GLY109     -0.2714
     29  N         22.2440   49.9900   13.6100 N.am  110  ALA110     -0.1977
     30  CA        23.3620   50.9160   13.5430 C.3   110  ALA110      0.1597
     31  C         24.2560   50.5960   12.3770 C.2   110  ALA110      0.2287
     32  O         24.7320   51.4950   11.6880 O.2   110  ALA110     -0.2864
     33  CB        24.1470   50.9120   14.8210 C.3   110  ALA110      0.0319
     34  N         22.8480   51.9010    9.1960 N.3   113  ASN113     -0.1240
     35  CA        23.0930   53.3290    9.0580 C.3   113  ASN113      0.1653
     36  C         24.5510   53.6510    8.7520 C.2   113  ASN113      0.2266
     37  O         24.8360   54.5650    7.9840 O.2   113  ASN113     -0.2867
     38  CB        22.5890   54.0960   10.2460 C.3   113  ASN113      0.1155
     39  CG        21.1140   54.0830   10.3190 C.2   113  ASN113      0.2627
     40  OD1       20.4550   54.1230    9.2890 O.2   113  ASN113     -0.2716
     41  ND2       20.5640   53.9690   11.5300 N.am  113  ASN113     -0.0877
     42  N         17.6870   59.2600   16.6510 N.3   136  TRP136     -0.1227
     43  CA        18.2400   58.0360   17.2250 C.3   136  TRP136      0.1737
     44  C         18.5680   57.0900   16.0890 C.2   136  TRP136      0.2595
     45  O         17.6740   56.4950   15.4910 O.2   136  TRP136     -0.2718
     46  CB        17.3580   57.3020   18.2590 C.3   136  TRP136      0.0564
     47  CG        18.0910   56.0810   18.8280 C.ar  136  TRP136      0.0003
     48  CD1       18.2830   54.8740   18.1970 C.ar  136  TRP136      0.0946
     49  CD2       18.8150   55.9880   20.0820 C.ar  136  TRP136      0.0152
     50  NE1       19.0480   54.0340   18.9780 N.ar  136  TRP136     -0.2442
     51  CE2       19.3830   54.6830   20.1430 C.ar  136  TRP136      0.0810
     52  CE3       19.0320   56.8710   21.1570 C.ar  136  TRP136      0.0012
     53  CZ2       20.1410   54.2410   21.2540 C.ar  136  TRP136      0.0191
     54  CZ3       19.7910   56.4330   22.2480 C.ar  136  TRP136      0.0001
     55  CH2       20.3300   55.1280   22.2840 C.ar  136  TRP136      0.0015
     56  N         19.8620   56.9540   15.7930 N.am  137  HIS137     -0.1961
     57  CA        20.3010   56.0850   14.7190 C.3   137  HIS137      0.1787
     58  C         21.1470   54.9120   15.1580 C.2   137  HIS137      0.2621
     59  O         21.4130   54.0310   14.3550 O.2   137  HIS137     -0.2715
     60  CB        21.0120   56.8890   13.6220 C.3   137  HIS137      0.0785
     61  CG        20.1310   57.9220   13.0070 C.ar  137  HIS137      0.0821
     62  ND1       18.9870   57.5930   12.3010 N.ar  137  HIS137     -0.2267
     63  CD2       20.1860   59.2740   13.0510 C.ar  137  HIS137      0.1154
     64  CE1       18.3960   58.7080   11.9220 C.ar  137  HIS137      0.1986
     65  NE2       19.0990   59.7390   12.3670 N.ar  137  HIS137     -0.2212
     66  N         21.5550   54.8740   16.4300 N.am  138  GLY138     -0.1940
     67  CA        22.3560   53.7470   16.9040 C.3   138  GLY138      0.2014
     68  C         23.5040   54.1410   17.8250 C.2   138  GLY138      0.2638
     69  O         23.7620   55.3160   18.0300 O.2   138  GLY138     -0.2714
     70  N         24.1840   53.1340   18.3700 N.am  139  MET139     -0.1976
     71  CA        25.2760   53.3470   19.3250 C.3   139  MET139      0.1605
     72  C         26.6660   53.3190   18.7530 C.2   139  MET139      0.2287
     73  O         27.6070   53.6380   19.4720 O.2   139  MET139     -0.2864
     74  CB        25.2590   52.2720   20.4280 C.3   139  MET139      0.0413
     75  CG        23.9570   52.1240   21.1940 C.3   139  MET139      0.0598
     76  SD        23.6550   53.5220   22.2770 S.3   139  MET139     -0.1393
     77  CE        25.3390   54.0710   22.6400 C.3   139  MET139      0.0692
     78  N         14.6920   60.0230   10.2330 N.3   208  GLU208     -0.1245
     79  CA        13.6860   58.9940   10.4870 C.3   208  GLU208      0.1567
     80  C         12.3590   59.6690    9.9840 C.2   208  GLU208      0.2260
     81  O         12.1380   60.8670   10.2250 O.2   208  GLU208     -0.2867
     82  CB        13.5400   58.7270   12.0070 C.3   208  GLU208      0.0388
     83  CG        14.7020   58.0180   12.7390 C.3   208  GLU208      0.1160
     84  CD        14.6890   58.3370   14.2310 C.2   208  GLU208      0.3649
     85  OE1       15.3750   59.2640   14.6780 O.co2 208  GLU208     -0.2457
     86  OE2       13.8780   57.6600   14.9510 O.co2 208  GLU208     -0.2457
     87  N         12.4920   57.4090   19.0680 N.3   213  SER213     -0.1217
     88  CA        13.1670   57.7040   20.3230 C.3   213  SER213      0.1889
     89  C         12.9580   59.1780   20.7300 C.2   213  SER213      0.2288
     90  O         12.8500   59.5180   21.9090 O.2   213  SER213     -0.2866
     91  CB        14.6560   57.3580   20.2080 C.3   213  SER213      0.2089
     92  OG        14.8340   55.9450   20.2930 O.3   213  SER213     -0.2183
     93  N         16.0580   56.4300    7.4590 N.3   241  ASP241     -0.1239
     94  CA        16.2000   55.3100    8.3870 C.3   241  ASP241      0.1674
     95  C         14.8160   54.8630    8.7900 C.2   241  ASP241      0.2266
     96  O         14.1550   55.5360    9.5780 O.2   241  ASP241     -0.2867
     97  CB        16.9950   55.8070    9.6110 C.3   241  ASP241      0.1410
     98  CG        17.1320   54.7720   10.7160 C.2   241  ASP241      0.3668
     99  OD1       16.6590   53.6450   10.5920 O.co2 241  ASP241     -0.2456
    100  OD2       17.7740   55.1520   11.7650 O.co2 241  ASP241     -0.2456
    101  N         14.0780   52.0550   10.3660 N.3   243  ALA243     -0.1231
    102  CA        14.2280   50.9660   11.3270 C.3   243  ALA243      0.1694
    103  C         12.9020   50.7290   12.0680 C.2   243  ALA243      0.2591
    104  O         12.4920   49.5870   12.3310 O.2   243  ALA243     -0.2718
    105  CB        15.3350   51.2830   12.3410 C.3   243  ALA243      0.0304
    106  N         12.2140   51.8010   12.3930 N.am  244  GLN244     -0.1979
    107  CA        10.9720   51.6230   13.1150 C.3   244  GLN244      0.1601
    108  C          9.7220   51.7490   12.3190 C.2   244  GLN244      0.2287
    109  O          8.6830   51.2360   12.7170 O.2   244  GLN244     -0.2864
    110  CB        10.9350   52.5700   14.2870 C.3   244  GLN244      0.0394
    111  CG        11.9880   52.1220   15.2960 C.3   244  GLN244      0.0908
    112  CD        11.7130   52.5800   16.6930 C.2   244  GLN244      0.2608
    113  OE1       10.5460   52.6960   17.0810 O.2   244  GLN244     -0.2717
    114  NE2       12.7680   52.8540   17.4720 N.am  244  GLN244     -0.0878
    115  N         15.8140   47.4260    9.4320 N.3   269  SER269     -0.1202
    116  CA        16.4370   46.5400   10.4360 C.3   269  SER269      0.2020
    117  C         15.4870   45.7390   11.3230 C.2   269  SER269      0.2618
    118  O         15.1710   44.5880   11.0830 O.2   269  SER269     -0.2717
    119  CB        17.3850   47.3380   11.3310 C.3   269  SER269      0.2103
    120  OG        16.7640   48.5420   11.7840 O.3   269  SER269     -0.2182
    121  N         15.0960   46.4030   12.4250 N.am  270  LYS270     -0.1979
    122  CA        14.2120   45.8800   13.4780 C.3   270  LYS270      0.1596
    123  C         13.1340   44.9300   12.9700 C.2   270  LYS270      0.2287
    124  O         13.2090   43.7070   13.1120 O.2   270  LYS270     -0.2864
    125  CB        13.4970   47.0620   14.1530 C.3   270  LYS270      0.0298
    126  CG        14.4340   48.0370   14.8310 C.3   270  LYS270      0.0038
    127  CD        13.7190   48.7930   15.9620 C.3   270  LYS270      0.0206
    128  CE        14.6800   49.5870   16.8450 C.3   270  LYS270      0.1093
    129  NZ        14.4390   49.3660   18.2790 N.3   270  LYS270     -0.1314
    130  N          5.5610   55.1110   24.0030 N.3   404  ARG404     -0.1245
    131  CA         5.7220   54.6550   22.6240 C.3   404  ARG404      0.1563
    132  C          4.9620   53.3400   22.4680 C.2   404  ARG404      0.2260
    133  O          5.3500   52.3030   23.0000 O.2   404  ARG404     -0.2867
    134  CB         7.2090   54.4890   22.2620 C.3   404  ARG404      0.0307
    135  CG         8.0170   55.7830   22.4190 C.3   404  ARG404      0.0489
    136  CD         9.3510   55.7260   21.6650 C.3   404  ARG404      0.2205
    137  NE        10.2860   54.8220   22.3180 N.pl3 404  ARG404     -0.0865
    138  CZ        11.3660   54.2820   21.7490 C.cat 404  ARG404      0.5346
    139  NH1       11.6850   54.5340   20.4940 N.pl3 404  ARG404      0.1354
    140  NH2       12.1410   53.4620   22.4530 N.pl3 404  ARG404      0.1354
@<TRIPOS>BOND
     1    93    94    1
     2    37    36    2
     3    94    95    1
     4    94    97    1
     5    36    35    1
     6    95    96    2
     7    35    34    1
     8    35    38    1
     9    40    39    2
    10   115   116    1
    11    97    98    1
    12    80    81    2
    13    80    79    1
    14    78    79    1
    15    38    39    1
    16    39    41   am
    17   101   102    1
    18   116   117    1
    19   116   119    1
    20    79    82    1
    21    99    98   ar
    22    98   100   ar
    23   118   117    2
    24   117   121   am
    25   102   103    1
    26   102   105    1
    27   119   120    1
    28    21    20    2
    29    28    27    2
    30    32    31    2
    31    64    62   ar
    32    64    65   ar
    33    18    19    1
    34    82    83    1
    35   103   104    2
    36   103   106   am
    37    62    61   ar
    38   108   109    2
    39   108   107    1
    40    65    63   ar
    41    20    19    1
    42    20    25   am
    43    31    30    1
    44   106   107    1
    45   121   122    1
    46    27    26    1
    47    27    29   am
    48    26    25    1
    49    83    84    1
    50    19    22    1
    51   123   124    2
    52   123   122    1
    53    61    63   ar
    54    61    60    1
    55   107   110    1
    56   122   125    1
    57    30    29    1
    58    30    33    1
    59    60    57    1
    60    23    22    1
    61   125   126    1
    62    22    24    1
    63    84    85   ar
    64    84    86   ar
    65   110   111    1
    66    59    58    2
    67    57    58    1
    68    57    56    1
    69   126   127    1
    70    58    66   am
    71   111   112    1
    72    45    44    2
    73    56    44   am
    74   127   128    1
    75    44    43    1
    76    13    12    2
    77    66    67    1
    78    42    43    1
    79   112   113    2
    80   112   114   am
    81   128   129    1
    82    67    68    1
    83    43    46    1
    84    12    11    1
    85    68    69    2
    86    68    70   am
    87    14    11    1
    88    14    15    1
    89    48    47   ar
    90    48    50   ar
    91    46    47    1
    92    70    71    1
    93    11    10    1
    94    72    71    1
    95    72    73    2
    96    47    49   ar
    97    50    51   ar
    98     4     3    2
    99    87    88    1
   100    15    16    1
   101    71    74    1
   102    10     3   am
   103     3     2    1
   104    49    51   ar
   105    49    52   ar
   106    51    53   ar
   107    91    92    1
   108    91    88    1
   109    16    17    1
   110    88    89    1
   111    74    75    1
   112   139   138    1
   113    89    90    2
   114    52    54   ar
   115    75    76    1
   116    53    55   ar
   117     2     5    1
   118     2     1    1
   119     5     6    1
   120   136   137    1
   121   136   135    1
   122   138   137    2
   123   138   140    1
   124     6     7    1
   125    54    55   ar
   126   134   135    1
   127   134   131    1
   128    76    77    1
   129   132   131    1
   130   132   133    2
   131   131   130    1
   132     8     7    2
   133     7     9   am
