@<TRIPOS>MOLECULE
tmp/1d7wB03.pdb
 89 85 0 0 0
SMALL
GASTEIGER

@<TRIPOS>ATOM
      1  N         36.3630    7.9460   -6.5900 N.3   195  LYS195     -0.1231
      2  CA        35.8570    8.4720   -5.3070 C.3   195  LYS195      0.1693
      3  C         35.8650    7.4490   -4.1710 C.2   195  LYS195      0.2592
      4  O         36.3650    7.7340   -3.0890 O.2   195  LYS195     -0.2718
      5  CB        34.4210    9.0290   -5.4420 C.3   195  LYS195      0.0285
      6  CG        33.8470    9.6670   -4.1720 C.3   195  LYS195      0.0035
      7  CD        32.4670   10.2290   -4.4380 C.3   195  LYS195      0.0206
      8  CE        31.9220   11.0120   -3.2550 C.3   195  LYS195      0.1093
      9  NZ        32.5780   12.3530   -3.1300 N.3   195  LYS195     -0.1314
     10  N         35.2880    6.2740   -4.4150 N.am  196  TYR196     -0.1976
     11  CA        35.1230    5.2760   -3.3640 C.3   196  TYR196      0.1639
     12  C         36.2630    4.2840   -3.3030 C.2   196  TYR196      0.2290
     13  O         36.4500    3.6460   -2.2800 O.2   196  TYR196     -0.2864
     14  CB        33.7780    4.5270   -3.5190 C.3   196  TYR196      0.0560
     15  CG        32.5850    5.4570   -3.4960 C.ar  196  TYR196     -0.0198
     16  CD1       32.1960    6.0700   -2.3090 C.ar  196  TYR196     -0.0009
     17  CD2       31.8990    5.7940   -4.6610 C.ar  196  TYR196     -0.0009
     18  CE1       31.1720    7.0030   -2.2770 C.ar  196  TYR196      0.0417
     19  CE2       30.8620    6.7280   -4.6420 C.ar  196  TYR196      0.0417
     20  CZ        30.5090    7.3330   -3.4410 C.ar  196  TYR196      0.1957
     21  OH        29.5270    8.2960   -3.4050 O.3   196  TYR196     -0.2866
     22  N         16.7480    8.7530    2.9040 N.3   322  ALA322     -0.1245
     23  CA        17.6410    8.5930    4.0380 C.3   322  ALA322      0.1562
     24  C         18.9970    8.0620    3.5490 C.2   322  ALA322      0.2260
     25  O         20.0540    8.4620    4.0450 O.2   322  ALA322     -0.2867
     26  CB        17.0260    7.6790    5.0980 C.3   322  ALA322      0.0290
     27  N         20.8930   10.8790    1.6860 N.3   325  ARG325     -0.1231
     28  CA        21.4590   11.7330    2.7230 C.3   325  ARG325      0.1694
     29  C         22.7310   11.1230    3.3170 C.2   325  ARG325      0.2592
     30  O         23.7330   11.8150    3.4870 O.2   325  ARG325     -0.2718
     31  CB        20.4210   11.9290    3.8250 C.3   325  ARG325      0.0321
     32  CG        20.8170   12.8960    4.9270 C.3   325  ARG325      0.0489
     33  CD        19.6630   13.0580    5.9160 C.3   325  ARG325      0.2205
     34  NE        18.4820   13.5320    5.2010 N.pl3 325  ARG325     -0.0865
     35  CZ        17.3090   12.9320    5.1510 C.cat 325  ARG325      0.5346
     36  NH1       17.0750   11.8410    5.8620 N.pl3 325  ARG325      0.1354
     37  NH2       16.3720   13.4480    4.3870 N.pl3 325  ARG325      0.1354
     38  N         22.6630    9.8400    3.6390 N.am  326  PHE326     -0.1962
     39  CA        23.8030    9.0900    4.1450 C.3   326  PHE326      0.1771
     40  C         24.9960    9.2560    3.1980 C.2   326  PHE326      0.2620
     41  O         26.1330    9.4700    3.6260 O.2   326  PHE326     -0.2715
     42  CB        23.4020    7.5870    4.2920 C.3   326  PHE326      0.0574
     43  CG        24.5730    6.6530    4.4730 C.ar  326  PHE326     -0.0200
     44  CD1       25.2020    6.5250    5.7120 C.ar  326  PHE326     -0.0042
     45  CD2       25.1170    5.9820    3.3700 C.ar  326  PHE326     -0.0042
     46  CE1       26.3610    5.7560    5.8520 C.ar  326  PHE326     -0.0003
     47  CE2       26.2670    5.2130    3.4960 C.ar  326  PHE326     -0.0003
     48  CZ        26.8910    5.1050    4.7480 C.ar  326  PHE326     -0.0000
     49  N         24.7080    9.2020    1.9110 N.am  327  CYS327     -0.1954
     50  CA        25.6910    9.3320    0.8360 C.3   327  CYS327      0.1843
     51  C         26.0330   10.7970    0.4510 C.2   327  CYS327      0.2626
     52  O         26.7640   11.0220   -0.5130 O.2   327  CYS327     -0.2714
     53  CB        25.1390    8.6120   -0.3920 C.3   327  CYS327      0.0997
     54  SG        25.1270    6.8140   -0.2220 S.3   327  CYS327     -0.0797
     55  N         25.4860   11.7940    1.1730 N.am  328  GLY328     -0.1954
     56  CA        25.7440   13.1810    0.8160 C.3   328  GLY328      0.1869
     57  C         25.1720   13.5870   -0.5380 C.2   328  GLY328      0.2309
     58  O         25.7080   14.4650   -1.1930 O.2   328  GLY328     -0.2863
     59  N         18.2960   15.1710   -1.5730 N.3   331  GLN331     -0.1245
     60  CA        17.1230   14.3580   -1.2580 C.3   331  GLN331      0.1566
     61  C         15.8770   14.9600   -1.8900 C.2   331  GLN331      0.2260
     62  O         15.3350   15.9200   -1.3760 O.2   331  GLN331     -0.2867
     63  CB        16.9370   14.2650    0.2760 C.3   331  GLN331      0.0367
     64  CG        18.1270   13.6580    1.0360 C.3   331  GLN331      0.0905
     65  CD        18.9120   14.6740    1.8620 C.2   331  GLN331      0.2608
     66  OE1       18.4440   15.1430    2.8930 O.2   331  GLN331     -0.2717
     67  NE2       20.1200   15.0010    1.4160 N.am  331  GLN331     -0.0878
     68  N         27.5240    4.8020   -4.3590 N.3   384  CYS384     -0.1235
     69  CA        27.9600    5.1590   -3.0210 C.3   384  CYS384      0.1677
     70  C         27.9350    3.9720   -2.0870 C.2   384  CYS384      0.2270
     71  O         28.9080    3.6960   -1.4110 O.2   384  CYS384     -0.2867
     72  CB        27.0690    6.2660   -2.4540 C.3   384  CYS384      0.0956
     73  SG        27.0460    6.3760   -0.6320 S.3   384  CYS384     -0.0801
     74  N         31.3360    2.0650   -1.2070 N.3   388  THR388     -0.1218
     75  CA        31.6780    2.1950    0.2120 C.3   388  THR388      0.1862
     76  C         31.9150    0.8250    0.8430 C.2   388  THR388      0.2287
     77  O         32.8540    0.6440    1.6210 O.2   388  THR388     -0.2866
     78  CB        30.5860    2.9660    1.0260 C.3   388  THR388      0.1770
     79  OG1       30.4950    4.3020    0.5230 O.3   388  THR388     -0.2211
     80  CG2       30.9250    3.0280    2.5180 C.3   388  THR388      0.0375
     81  N         35.7520   -0.9220    2.2600 N.3   392  LYS392     -0.1245
     82  CA        35.9170   -1.4610    3.5810 C.3   392  LYS392      0.1561
     83  C         36.3320   -2.9270    3.5390 C.2   392  LYS392      0.2260
     84  O         37.0590   -3.3990    4.4420 O.2   392  LYS392     -0.2867
     85  CB        34.6510   -1.2840    4.3740 C.3   392  LYS392      0.0271
     86  CG        34.3590    0.1670    4.7370 C.3   392  LYS392      0.0035
     87  CD        32.8550    0.3540    4.9310 C.3   392  LYS392      0.0206
     88  CE        32.5080    1.6780    5.5850 C.3   392  LYS392      0.1093
     89  NZ        32.9330    1.7220    7.0100 N.3   392  LYS392     -0.1314
@<TRIPOS>BOND
     1     1     2    1
     2     5     2    1
     3     5     6    1
     4     2     3    1
     5    17    19   ar
     6    17    15   ar
     7    19    20   ar
     8     7     6    1
     9     7     8    1
    10    10     3   am
    11    10    11    1
    12    68    69    1
    13     3     4    2
    14    14    15    1
    15    14    11    1
    16    15    16   ar
    17    20    21    1
    18    20    18   ar
    19    11    12    1
    20    12    13    2
    21     8     9    1
    22    69    72    1
    23    69    70    1
    24    72    73    1
    25    16    18   ar
    26    70    71    2
    27    61    62    2
    28    61    60    1
    29    59    60    1
    30    60    63    1
    31    74    75    1
    32    58    57    2
    33    73    54    1
    34    57    56    1
    35    52    51    2
    36    53    54    1
    37    53    50    1
    38    75    76    1
    39    75    78    1
    40    63    64    1
    41    51    50    1
    42    51    55   am
    43    79    78    1
    44    56    55    1
    45    50    49    1
    46    76    77    2
    47    78    80    1
    48    64    65    1
    49    67    65   am
    50    27    28    1
    51    65    66    2
    52    49    40   am
    53    81    82    1
    54    28    29    1
    55    28    31    1
    56    22    23    1
    57    40    41    2
    58    40    39    1
    59    29    30    2
    60    29    38   am
    61    45    47   ar
    62    45    43   ar
    63    47    48   ar
    64    83    82    1
    65    83    84    2
    66    24    23    1
    67    24    25    2
    68    82    85    1
    69    38    39    1
    70    31    32    1
    71    23    26    1
    72    39    42    1
    73    42    43    1
    74    85    86    1
    75    37    35    1
    76    43    44   ar
    77    86    87    1
    78    48    46   ar
    79    32    33    1
    80    87    88    1
    81    35    34    2
    82    35    36    1
    83    34    33    1
    84    88    89    1
    85    44    46   ar
