@<TRIPOS>MOLECULE
tmp/1d7xA00.pdb
 139 139 0 0 0
SMALL
GASTEIGER

@<TRIPOS>ATOM
      1  N        -14.6420   22.7880   32.3130 N.3    80  ASN80      -0.1225
      2  CA       -14.1460   23.2270   31.0180 C.3    80  ASN80       0.1785
      3  C        -12.6250   23.4240   31.0880 C.2    80  ASN80       0.2597
      4  O        -11.9270   22.5100   31.5150 O.2    80  ASN80      -0.2718
      5  CB       -14.9500   24.4550   30.5970 C.3    80  ASN80       0.1169
      6  CG       -16.4530   24.1490   30.5430 C.2    80  ASN80       0.2627
      7  OD1      -16.8850   23.2780   29.7970 O.2    80  ASN80      -0.2716
      8  ND2      -17.2350   24.7870   31.4090 N.am   80  ASN80      -0.0877
      9  N        -12.0880   24.5870   30.7210 N.am   81  VAL81      -0.1966
     10  CA       -10.6350   24.7660   30.8170 C.3    81  VAL81       0.1727
     11  C        -10.1370   24.4790   32.2410 C.2    81  VAL81       0.2616
     12  O        -10.5820   25.1220   33.2190 O.2    81  VAL81      -0.2715
     13  CB       -10.2140   26.1870   30.4440 C.3    81  VAL81       0.0290
     14  CG1       -8.7180   26.3570   30.6040 C.3    81  VAL81       0.0023
     15  CG2      -10.6190   26.4810   29.0190 C.3    81  VAL81       0.0023
     16  N         -9.2850   23.4640   32.3760 N.am   82  LEU82      -0.1963
     17  CA        -8.7450   23.0760   33.6740 C.3    82  LEU82       0.1728
     18  C         -7.3870   23.7050   33.9560 C.2    82  LEU82       0.2616
     19  O         -7.0570   23.9890   35.1130 O.2    82  LEU82      -0.2715
     20  CB        -8.6550   21.5420   33.7700 C.3    82  LEU82       0.0311
     21  CG        -9.8920   20.7880   33.2820 C.3    82  LEU82       0.0022
     22  CD1       -9.5490   19.3300   32.9750 C.3    82  LEU82       0.0001
     23  CD2      -11.0470   20.9030   34.2630 C.3    82  LEU82       0.0001
     24  N         -6.6220   23.9750   32.9010 N.am   83  ALA83      -0.1963
     25  CA        -5.3000   24.5790   33.0630 C.3    83  ALA83       0.1728
     26  C         -4.7660   24.9320   31.6830 C.2    83  ALA83       0.2616
     27  O         -5.2720   24.4140   30.6920 O.2    83  ALA83      -0.2715
     28  CB        -4.3460   23.5810   33.7320 C.3    83  ALA83       0.0334
     29  N         -3.7920   25.8330   31.5980 N.am   84  HIS84      -0.1973
     30  CA        -3.2320   26.1250   30.2790 C.3    84  HIS84       0.1656
     31  C         -1.7520   26.4110   30.4200 C.2    84  HIS84       0.2291
     32  O         -1.2810   26.7190   31.5150 O.2    84  HIS84      -0.2864
     33  CB        -3.9750   27.2440   29.5250 C.3    84  HIS84       0.0771
     34  CG        -3.9970   28.5650   30.2320 C.ar   84  HIS84       0.0820
     35  ND1       -5.0740   29.4080   30.1620 N.ar   84  HIS84      -0.2267
     36  CD2       -3.0680   29.2020   30.9880 C.ar   84  HIS84       0.1154
     37  CE1       -4.8200   30.5150   30.8320 C.ar   84  HIS84       0.1986
     38  NE2       -3.6080   30.4140   31.3470 N.ar   84  HIS84      -0.2212
     39  N         -2.1780   14.1790   36.3670 N.3   115  LEU115     -0.1231
     40  CA        -2.4620   13.9470   34.9580 C.3   115  LEU115      0.1693
     41  C         -2.5260   15.2430   34.1440 C.2   115  LEU115      0.2591
     42  O         -1.8970   15.3510   33.0910 O.2   115  LEU115     -0.2718
     43  CB        -3.7590   13.1610   34.7920 C.3   115  LEU115      0.0284
     44  CG        -4.0210   12.6970   33.3600 C.3   115  LEU115      0.0019
     45  CD1       -3.2090   11.4520   33.0490 C.3   115  LEU115      0.0001
     46  CD2       -5.4950   12.4330   33.1900 C.3   115  LEU115      0.0001
     47  N         -3.2360   16.2390   34.6730 N.am  116  VAL116     -0.1980
     48  CA        -3.3440   17.5280   33.9970 C.3   116  VAL116      0.1595
     49  C         -1.9830   18.2400   33.9690 C.2   116  VAL116      0.2287
     50  O         -1.5840   18.7690   32.9460 O.2   116  VAL116     -0.2864
     51  CB        -4.3920   18.4310   34.6440 C.3   116  VAL116      0.0276
     52  CG1       -4.3740   19.7970   34.0040 C.3   116  VAL116      0.0022
     53  CG2       -5.7870   17.8120   34.4660 C.3   116  VAL116      0.0022
     54  N          0.1900   16.7820   31.2340 N.3   119  HIS119     -0.1226
     55  CA        -0.2590   17.3150   29.9490 C.3   119  HIS119      0.1752
     56  C          0.2370   18.7460   29.7860 C.2   119  HIS119      0.2595
     57  O          0.7820   19.1020   28.7290 O.2   119  HIS119     -0.2718
     58  CB        -1.7850   17.2840   29.8920 C.3   119  HIS119      0.0759
     59  CG        -2.3900   17.9640   28.6870 C.ar  119  HIS119      0.0818
     60  ND1       -2.9890   17.2490   27.6770 N.ar  119  HIS119     -0.2268
     61  CD2       -2.5750   19.2670   28.4130 C.ar  119  HIS119      0.1154
     62  CE1       -3.5130   18.0980   26.8070 C.ar  119  HIS119      0.1986
     63  NE2       -3.2930   19.3220   27.2180 N.ar  119  HIS119     -0.2212
     64  N          0.0920   19.5610   30.8380 N.am  120  GLU120     -0.1979
     65  CA         0.5220   20.9540   30.8020 C.3   120  GLU120      0.1602
     66  C          2.0090   21.1320   30.5050 C.2   120  GLU120      0.2287
     67  O          2.3940   21.9540   29.6840 O.2   120  GLU120     -0.2864
     68  CB         0.1630   21.6750   32.0960 C.3   120  GLU120      0.0415
     69  CG        -1.3150   21.8500   32.3040 C.3   120  GLU120      0.1163
     70  CD        -2.0460   22.3550   31.0720 C.2   120  GLU120      0.3649
     71  OE1       -1.6440   23.4020   30.5250 O.co2 120  GLU120     -0.2457
     72  OE2       -3.0140   21.6930   30.6750 O.co2 120  GLU120     -0.2457
     73  N          2.8840   20.7790   27.0720 N.3   123  HIS123     -0.1241
     74  CA         2.7920   22.0680   26.3850 C.3   123  HIS123      0.1621
     75  C          4.0380   22.9050   26.6850 C.2   123  HIS123      0.2264
     76  O          4.6760   23.4410   25.7760 O.2   123  HIS123     -0.2867
     77  CB         1.5460   22.8370   26.8570 C.3   123  HIS123      0.0745
     78  CG         0.2540   22.3500   26.2650 C.ar  123  HIS123      0.0817
     79  ND1        0.1240   22.0020   24.9460 N.ar  123  HIS123     -0.2268
     80  CD2       -0.9680   22.1700   26.8300 C.ar  123  HIS123      0.1154
     81  CE1       -1.1300   21.6240   24.7110 C.ar  123  HIS123      0.1986
     82  NE2       -1.8040   21.7170   25.8390 N.ar  123  HIS123     -0.2212
     83  N         -1.6710   19.8170   20.9600 N.3   129  HIS129     -0.1241
     84  CA        -2.6560   18.7460   21.1410 C.3   129  HIS129      0.1621
     85  C         -2.5900   17.6010   20.1010 C.2   129  HIS129      0.2264
     86  O         -2.5620   17.8440   18.8920 O.2   129  HIS129     -0.2867
     87  CB        -4.0640   19.3010   21.2050 C.3   129  HIS129      0.0745
     88  CG        -4.3240   20.1220   22.4270 C.ar  129  HIS129      0.0817
     89  ND1       -5.0980   21.2770   22.4120 N.ar  129  HIS129     -0.2268
     90  CD2       -3.9370   19.9590   23.6990 C.ar  129  HIS129      0.1154
     91  CE1       -5.1630   21.7700   23.6160 C.ar  129  HIS129      0.1986
     92  NE2       -4.4630   20.9970   24.4420 N.ar  129  HIS129     -0.2212
     93  N         -1.5630   11.3220   26.0730 N.3   136  LEU136     -0.1245
     94  CA        -1.6610   12.2490   27.1850 C.3   136  LEU136      0.1561
     95  C         -1.9270   13.6420   26.6070 C.2   136  LEU136      0.2260
     96  O         -2.6430   14.4420   27.1980 O.2   136  LEU136     -0.2867
     97  CB        -0.3720   12.2460   28.0000 C.3   136  LEU136      0.0270
     98  CG        -0.2340   13.3430   29.0570 C.3   136  LEU136      0.0019
     99  CD1       -1.1790   13.0850   30.1800 C.3   136  LEU136      0.0001
    100  CD2        1.1570   13.3560   29.5960 C.3   136  LEU136      0.0001
    101  N         -3.8100   14.4340   24.2370 N.3   138  TYR138     -0.1228
    102  CA        -5.1540   14.5410   23.6610 C.3   138  TYR138      0.1721
    103  C         -5.8350   15.5810   24.5550 C.2   138  TYR138      0.2437
    104  O         -5.8130   15.4670   25.7710 O.2   138  TYR138     -0.2733
    105  CB        -5.8860   13.1940   23.5160 C.3   138  TYR138      0.0547
    106  CG        -6.9370   13.6220   22.5550 C.ar  138  TYR138     -0.0200
    107  CD1       -6.8850   13.7670   21.1680 C.ar  138  TYR138     -0.0009
    108  CD2       -8.1720   13.5220   23.1910 C.ar  138  TYR138     -0.0009
    109  CE1       -8.0560   13.8120   20.4270 C.ar  138  TYR138      0.0417
    110  CE2       -9.3440   13.5770   22.4500 C.ar  138  TYR138      0.0417
    111  CZ        -9.2810   13.7130   21.0620 C.ar  138  TYR138      0.1957
    112  OH       -10.4520   13.7660   20.3320 O.3   138  TYR138     -0.2866
    113  N         -6.4380   16.6270   23.9680 N.am  139  PRO139     -0.2718
    114  CA        -7.0700   17.6300   24.8420 C.3   139  PRO139      0.1535
    115  C         -8.3960   17.2300   25.4630 C.2   139  PRO139      0.2598
    116  O         -9.4240   17.8320   25.1800 O.2   139  PRO139     -0.2715
    117  CB        -7.2520   18.8030   23.9140 C.3   139  PRO139      0.0310
    118  CG        -7.6240   18.1320   22.6220 C.3   139  PRO139      0.0237
    119  CD        -6.7830   16.8610   22.5630 C.3   139  PRO139      0.0939
    120  N         -8.3850   16.1990   26.2870 N.am  140  LEU140     -0.1964
    121  CA        -9.6210   15.7830   26.9140 C.3   140  LEU140      0.1728
    122  C         -9.3340   15.1510   28.2480 C.2   140  LEU140      0.2616
    123  O         -8.5960   14.1770   28.3350 O.2   140  LEU140     -0.2715
    124  CB       -10.3710   14.7880   26.0230 C.3   140  LEU140      0.0311
    125  CG       -11.7250   14.3330   26.5800 C.3   140  LEU140      0.0022
    126  CD1      -12.7330   15.4620   26.5800 C.3   140  LEU140      0.0001
    127  CD2      -12.2410   13.1880   25.7460 C.3   140  LEU140      0.0001
    128  N         -9.9000   15.7130   29.3010 N.am  141  TYR141     -0.1974
    129  CA        -9.7110   15.1460   30.6040 C.3   141  TYR141      0.1639
    130  C        -10.7040   14.0140   30.8100 C.2   141  TYR141      0.2290
    131  O        -11.9150   14.2150   30.8220 O.2   141  TYR141     -0.2864
    132  CB        -9.9080   16.1800   31.6920 C.3   141  TYR141      0.0560
    133  CG        -9.6010   15.5700   33.0390 C.ar  141  TYR141     -0.0198
    134  CD1       -8.2880   15.3580   33.4290 C.ar  141  TYR141     -0.0009
    135  CD2      -10.6220   15.1700   33.8960 C.ar  141  TYR141     -0.0009
    136  CE1       -7.9900   14.7610   34.6310 C.ar  141  TYR141      0.0417
    137  CE2      -10.3380   14.5740   35.1030 C.ar  141  TYR141      0.0417
    138  CZ        -9.0190   14.3680   35.4630 C.ar  141  TYR141      0.1957
    139  OH        -8.7170   13.7330   36.6510 O.3   141  TYR141     -0.2866
@<TRIPOS>BOND
     1    86    85    2
     2    85    84    1
     3   112   111    1
     4   109   111   ar
     5   109   107   ar
     6    83    84    1
     7   111   110   ar
     8    84    87    1
     9   107   106   ar
    10    87    88    1
    11    89    88   ar
    12    89    91   ar
    13    88    90   ar
    14   110   108   ar
    15   106   108   ar
    16   106   105    1
    17   119   118    1
    18   119   113    1
    19   118   117    1
    20   105   102    1
    21    91    92   ar
    22   102   101    1
    23   102   103    1
    24    90    92   ar
    25   117   114    1
    26   113   103   am
    27   113   114    1
    28   103   104    2
    29    81    79   ar
    30    81    82   ar
    31   114   115    1
    32    79    78   ar
    33   116   115    2
    34   115   120   am
    35   127   125    1
    36    76    75    2
    37    82    80   ar
    38   124   125    1
    39   124   121    1
    40    93    94    1
    41    78    80   ar
    42    78    77    1
    43   120   121    1
    44    74    75    1
    45    74    77    1
    46    74    73    1
    47   126   125    1
    48    95    94    1
    49    95    96    2
    50    62    63   ar
    51    62    60   ar
    52   121   122    1
    53    94    97    1
    54    63    61   ar
    55    60    59   ar
    56    97    98    1
    57   122   123    2
    58   122   128   am
    59    61    59   ar
    60    59    58    1
    61    57    56    2
    62    15    13    1
    63    98   100    1
    64    98    99    1
    65   128   129    1
    66    33    34    1
    67    33    30    1
    68    67    66    2
    69    56    55    1
    70    56    64   am
    71     7     6    2
    72    58    55    1
    73    55    54    1
    74    35    34   ar
    75    35    37   ar
    76    34    36   ar
    77    30    31    1
    78    30    29    1
    79    31    32    2
    80    13    14    1
    81    13    10    1
    82    66    65    1
    83    71    70   ar
    84     6     5    1
    85     6     8   am
    86     5     2    1
    87   129   130    1
    88   129   132    1
    89    72    70   ar
    90    27    26    2
    91     9    10    1
    92     9     3   am
    93    65    64    1
    94    65    68    1
    95   130   131    2
    96    10    11    1
    97    37    38   ar
    98    36    38   ar
    99     2     3    1
   100     2     1    1
   101    70    69    1
   102     3     4    2
   103    29    26   am
   104    26    25    1
   105   132   133    1
   106    68    69    1
   107    11    16   am
   108    11    12    2
   109    16    17    1
   110    24    25    1
   111    24    18   am
   112    50    49    2
   113    22    21    1
   114   133   134   ar
   115   133   135   ar
   116    45    44    1
   117    25    28    1
   118    42    41    2
   119    46    44    1
   120    21    20    1
   121    21    23    1
   122    44    43    1
   123   134   136   ar
   124    17    20    1
   125    17    18    1
   126   135   137   ar
   127    18    19    2
   128    49    48    1
   129    48    51    1
   130    48    47    1
   131    52    51    1
   132    41    47   am
   133    41    40    1
   134    53    51    1
   135   136   138   ar
   136    43    40    1
   137    40    39    1
   138   137   138   ar
   139   138   139    1
