@<TRIPOS>MOLECULE
tmp/1d8dB00.pdb
 221 217 0 0 0
SMALL
GASTEIGER

@<TRIPOS>ATOM
      1  N         94.9140    3.9500   29.7850 N.3    75  ASP75      -0.1225
      2  CA        95.6320    4.1580   31.0310 C.3    75  ASP75       0.1805
      3  C         96.8230    5.0910   30.8480 C.2    75  ASP75       0.2597
      4  O         97.5860    5.3340   31.7860 O.2    75  ASP75      -0.2718
      5  CB        96.0480    2.8210   31.6700 C.3    75  ASP75       0.1424
      6  CG        97.0030    1.9970   30.8040 C.2    75  ASP75       0.3668
      7  OD1       97.5140    2.4770   29.7650 O.co2  75  ASP75      -0.2456
      8  OD2       97.2560    0.8390   31.1930 O.co2  75  ASP75      -0.2456
      9  N         97.0350    5.5380   29.6130 N.am   76  ALA76      -0.1979
     10  CA        98.0950    6.4900   29.3230 C.3    76  ALA76       0.1597
     11  C         97.6880    7.7970   30.0280 C.2    76  ALA76       0.2287
     12  O         98.5200    8.6760   30.2660 O.2    76  ALA76      -0.2864
     13  CB        98.1970    6.7220   27.8320 C.3    76  ALA76       0.0319
     14  N         96.2520    7.8790   33.0920 N.3    78  GLU78      -0.1231
     15  CA        96.1490    7.6560   34.5370 C.3    78  GLU78       0.1699
     16  C         96.8090    8.8160   35.2760 C.2    78  GLU78       0.2592
     17  O         96.3170    9.2640   36.3130 O.2    78  GLU78      -0.2718
     18  CB        96.8380    6.3570   34.9330 C.3    78  GLU78       0.0402
     19  CG        95.9510    5.1830   34.7230 C.3    78  GLU78       0.1161
     20  CD        96.5570    3.8830   35.1730 C.2    78  GLU78       0.3649
     21  OE1       95.7780    2.9460   35.3620 O.co2  78  GLU78      -0.2457
     22  OE2       97.7850    3.7740   35.3310 O.co2  78  GLU78      -0.2457
     23  N         97.9010    9.3160   34.7050 N.am   79  CYS79      -0.1956
     24  CA        98.6420   10.4320   35.2700 C.3    79  CYS79       0.1843
     25  C         97.8160   11.7220   35.2820 C.2    79  CYS79       0.2625
     26  O         98.2290   12.7120   35.8750 O.2    79  CYS79      -0.2714
     27  CB        99.9370   10.6580   34.4770 C.3    79  CYS79       0.0997
     28  SG        99.6810   11.1780   32.7420 S.3    79  CYS79      -0.0797
     29  N         96.6740   11.7280   34.6000 N.am   80  LEU80      -0.1977
     30  CA        95.8250   12.9120   34.5670 C.3    80  LEU80       0.1596
     31  C         94.4810   12.6440   35.2170 C.2    80  LEU80       0.2287
     32  O         93.5010   13.3430   34.9810 O.2    80  LEU80      -0.2864
     33  CB        95.6940   13.4700   33.1380 C.3    80  LEU80       0.0297
     34  CG        96.9780   14.1310   32.5740 C.3    80  LEU80       0.0022
     35  CD1       96.7850   14.4670   31.1240 C.3    80  LEU80       0.0001
     36  CD2       97.3660   15.4080   33.3440 C.3    80  LEU80       0.0001
     37  N         93.7280   13.3620   38.0750 N.3    82  ALA82      -0.1231
     38  CA        93.3720   14.4820   38.9280 C.3    82  ALA82       0.1694
     39  C         93.1990   15.7510   38.0840 C.2    82  ALA82       0.2592
     40  O         93.2540   16.8710   38.6070 O.2    82  ALA82      -0.2718
     41  CB        94.4250   14.6850   40.0220 C.3    82  ALA82       0.0304
     42  N         92.9270   15.5720   36.7890 N.am   83  SER83      -0.1952
     43  CA        92.7550   16.7000   35.8660 C.3    83  SER83       0.1924
     44  C         91.6910   16.4140   34.8320 C.2    83  SER83       0.2314
     45  O         91.7630   16.9110   33.7100 O.2    83  SER83      -0.2863
     46  CB        94.0620   16.9780   35.1200 C.3    83  SER83       0.2116
     47  OG        95.1200   17.2600   36.0130 O.3    83  SER83      -0.2180
     48  N         90.1570   19.2020   32.8860 N.3    86  TRP86      -0.1241
     49  CA        91.0700   19.7440   31.8810 C.3    86  TRP86       0.1605
     50  C         90.9130   18.9170   30.6180 C.2    86  TRP86       0.2264
     51  O         90.9310   19.4550   29.5190 O.2    86  TRP86      -0.2867
     52  CB        92.5220   19.6660   32.3260 C.3    86  TRP86       0.0550
     53  CG        92.9730   20.8150   33.1680 C.ar   86  TRP86       0.0003
     54  CD1       93.2090   20.7970   34.5090 C.ar   86  TRP86       0.0946
     55  CD2       93.3050   22.1350   32.7160 C.ar   86  TRP86       0.0152
     56  NE1       93.6780   22.0160   34.9220 N.ar   86  TRP86      -0.2442
     57  CE2       93.7450   22.8610   33.8450 C.ar   86  TRP86       0.0810
     58  CE3       93.2770   22.7750   31.4680 C.ar   86  TRP86       0.0012
     59  CZ2       94.1590   24.2090   33.7660 C.ar   86  TRP86       0.0191
     60  CZ3       93.6900   24.1140   31.3880 C.ar   86  TRP86       0.0001
     61  CH2       94.1240   24.8120   32.5320 C.ar   86  TRP86       0.0015
     62  N         90.1940   20.6890   27.1970 N.3    90  TRP90      -0.1241
     63  CA        91.1230   20.5470   26.0770 C.3    90  TRP90       0.1605
     64  C         90.4400   19.9470   24.8430 C.2    90  TRP90       0.2264
     65  O         90.6360   20.4220   23.7210 O.2    90  TRP90      -0.2867
     66  CB        92.3210   19.6610   26.4410 C.3    90  TRP90       0.0550
     67  CG        93.2590   20.2090   27.4690 C.ar   90  TRP90       0.0003
     68  CD1       93.5870   21.5240   27.6870 C.ar   90  TRP90       0.0946
     69  CD2       94.0150   19.4420   28.4170 C.ar   90  TRP90       0.0152
     70  NE1       94.5010   21.6160   28.7090 N.ar   90  TRP90      -0.2442
     71  CE2       94.7810   20.3570   29.1780 C.ar   90  TRP90       0.0810
     72  CE3       94.1230   18.0630   28.6920 C.ar   90  TRP90       0.0012
     73  CZ2       95.6460   19.9420   30.2030 C.ar   90  TRP90       0.0191
     74  CZ3       94.9880   17.6450   29.7120 C.ar   90  TRP90       0.0001
     75  CH2       95.7380   18.5880   30.4560 C.ar   90  TRP90       0.0015
     76  N         90.2000   22.5290   43.3000 N.3   133  HIS133     -0.1241
     77  CA        91.5220   23.0710   43.0030 C.3   133  HIS133      0.1621
     78  C         91.2720   24.1050   41.8920 C.2   133  HIS133      0.2264
     79  O         90.4420   23.8820   41.0060 O.2   133  HIS133     -0.2867
     80  CB        92.3880   21.8820   42.5290 C.3   133  HIS133      0.0745
     81  CG        93.8270   22.1990   42.2470 C.ar  133  HIS133      0.0817
     82  ND1       94.2220   23.0460   41.2320 N.ar  133  HIS133     -0.2268
     83  CD2       94.9690   21.6960   42.7790 C.ar  133  HIS133      0.1154
     84  CE1       95.5430   23.0490   41.1480 C.ar  133  HIS133      0.1986
     85  NE2       96.0190   22.2390   42.0760 N.ar  133  HIS133     -0.2212
     86  N         92.9590   25.0050   39.1810 N.3   135  ALA135     -0.1231
     87  CA        93.2200   24.6520   37.7930 C.3   135  ALA135      0.1679
     88  C         92.0230   23.8980   37.1960 C.2   135  ALA135      0.2434
     89  O         91.5150   24.2810   36.1340 O.2   135  ALA135     -0.2733
     90  CB        94.5220   23.9000   37.6590 C.3   135  ALA135      0.0304
     91  N         91.5540   22.8140   37.8580 N.am  136  PRO136     -0.2729
     92  CA        90.3900   22.1350   37.2660 C.3   136  PRO136      0.1401
     93  C         89.0990   22.9850   37.3360 C.2   136  PRO136      0.2269
     94  O         88.1560   22.7420   36.5760 O.2   136  PRO136     -0.2865
     95  CB        90.2930   20.8180   38.0630 C.3   136  PRO136      0.0296
     96  CG        91.1230   21.0380   39.2780 C.3   136  PRO136      0.0237
     97  CD        92.2350   21.9280   38.8180 C.3   136  PRO136      0.0939
     98  N        100.0160   25.0620   46.8830 N.3   182  GLU182     -0.1245
     99  CA       101.0090   26.0440   46.4650 C.3   182  GLU182      0.1567
    100  C        100.4180   27.3390   45.9060 C.2   182  GLU182      0.2260
    101  O         99.2320   27.4150   45.5460 O.2   182  GLU182     -0.2867
    102  CB       101.9710   25.4330   45.4380 C.3   182  GLU182      0.0388
    103  CG       101.3870   25.2250   44.0340 C.3   182  GLU182      0.1160
    104  CD       100.5910   23.9140   43.8590 C.2   182  GLU182      0.3649
    105  OE1      100.2960   23.1880   44.8460 O.co2 182  GLU182     -0.2457
    106  OE2      100.2460   23.6170   42.6960 O.co2 182  GLU182     -0.2457
    107  N         99.4640   31.1730   38.4040 N.3   186  ARG186     -0.1245
    108  CA        98.3470   30.4530   37.7800 C.3   186  ARG186      0.1563
    109  C         97.0410   30.7150   38.5420 C.2   186  ARG186      0.2260
    110  O         95.9690   30.8200   37.9400 O.2   186  ARG186     -0.2867
    111  CB        98.5770   28.9310   37.7800 C.3   186  ARG186      0.0307
    112  CG        99.6400   28.3930   36.8380 C.3   186  ARG186      0.0489
    113  CD        99.8920   26.9010   37.1120 C.3   186  ARG186      0.2205
    114  NE       100.3720   26.6790   38.4800 N.pl3 186  ARG186     -0.0865
    115  CZ       100.0690   25.6320   39.2520 C.cat 186  ARG186      0.5346
    116  NH1       99.2820   24.6470   38.8160 N.pl3 186  ARG186      0.1354
    117  NH2      100.5050   25.5980   40.5070 N.pl3 186  ARG186      0.1354
    118  N        108.4260   24.4920   21.5610 N.3   281  ASP281     -0.1239
    119  CA       107.3620   23.5860   21.9560 C.3   281  ASP281      0.1674
    120  C        106.0450   24.1450   21.4310 C.2   281  ASP281      0.2266
    121  O        105.7000   25.3070   21.6810 O.2   281  ASP281     -0.2867
    122  CB       107.3120   23.4590   23.4930 C.3   281  ASP281      0.1410
    123  CG       106.1790   22.5350   24.0000 C.2   281  ASP281      0.3668
    124  OD1      105.2100   22.2360   23.2670 O.co2 281  ASP281     -0.2456
    125  OD2      106.2380   22.1140   25.1740 O.co2 281  ASP281     -0.2456
    126  N        102.9570   23.8670   22.4510 N.3   283  CYS283     -0.1221
    127  CA       101.9450   24.4460   23.3520 C.3   283  CYS283      0.1808
    128  C        102.1710   25.9450   23.5640 C.2   283  CYS283      0.2601
    129  O        101.2190   26.6770   23.7990 O.2   283  CYS283     -0.2717
    130  CB       101.8350   23.6950   24.6880 C.3   283  CYS283      0.0970
    131  SG       103.3100   23.6980   25.7430 S.3   283  CYS283     -0.0800
    132  N        103.4110   26.4130   23.3800 N.am  284  TYR284     -0.1976
    133  CA       103.7190   27.8430   23.5300 C.3   284  TYR284      0.1639
    134  C        103.1840   28.6520   22.3580 C.2   284  TYR284      0.2290
    135  O        103.2490   29.8790   22.3630 O.2   284  TYR284     -0.2864
    136  CB       105.2130   28.0780   23.7150 C.3   284  TYR284      0.0560
    137  CG       105.7220   27.4270   24.9840 C.ar  284  TYR284     -0.0198
    138  CD1      106.8370   26.5920   24.9560 C.ar  284  TYR284     -0.0009
    139  CD2      105.0450   27.5930   26.2030 C.ar  284  TYR284     -0.0009
    140  CE1      107.2660   25.9270   26.1020 C.ar  284  TYR284      0.0417
    141  CE2      105.4640   26.9330   27.3620 C.ar  284  TYR284      0.0417
    142  CZ       106.5790   26.0930   27.3020 C.ar  284  TYR284      0.1957
    143  OH       107.0190   25.3940   28.4130 O.3   284  TYR284     -0.2866
    144  N        100.4810   29.8760   24.7770 N.3   287  TRP287     -0.1241
    145  CA       100.9650   30.6320   25.9280 C.3   287  TRP287      0.1605
    146  C        101.8070   31.8550   25.5510 C.2   287  TRP287      0.2264
    147  O        101.6310   32.9210   26.1310 O.2   287  TRP287     -0.2867
    148  CB       101.7390   29.7360   26.8930 C.3   287  TRP287      0.0550
    149  CG       100.9930   28.4900   27.3180 C.ar  287  TRP287      0.0003
    150  CD1      101.3800   27.2020   27.0880 C.ar  287  TRP287      0.0946
    151  CD2       99.7450   28.4120   28.0490 C.ar  287  TRP287      0.0152
    152  NE1      100.4580   26.3250   27.6230 N.ar  287  TRP287     -0.2442
    153  CE2       99.4480   27.0340   28.2220 C.ar  287  TRP287      0.0810
    154  CE3       98.8600   29.3690   28.5820 C.ar  287  TRP287      0.0012
    155  CZ2       98.3050   26.5800   28.9050 C.ar  287  TRP287      0.0191
    156  CZ3       97.7100   28.9160   29.2700 C.ar  287  TRP287      0.0001
    157  CH2       97.4470   27.5300   29.4230 C.ar  287  TRP287      0.0015
    158  N        104.2180   18.4600   20.9190 N.3   336  ASP336     -0.1239
    159  CA       105.2380   19.4100   21.3310 C.3   336  ASP336      0.1674
    160  C        106.2230   19.6960   20.1910 C.2   336  ASP336      0.2266
    161  O        106.3310   20.8300   19.7460 O.2   336  ASP336     -0.2867
    162  CB       105.9030   18.8150   22.6000 C.3   336  ASP336      0.1410
    163  CG       107.2430   19.4460   22.9780 C.2   336  ASP336      0.3668
    164  OD1      107.7660   20.3630   22.3170 O.co2 336  ASP336     -0.2456
    165  OD2      107.8030   18.9790   23.9890 O.co2 336  ASP336     -0.2456
    166  N        108.3570   13.8080   19.9290 N.3   340  LYS340     -0.1231
    167  CA       107.4050   13.7050   21.0400 C.3   340  LYS340      0.1693
    168  C        106.1140   13.0670   20.5530 C.2   340  LYS340      0.2593
    169  O        105.8040   13.1130   19.3600 O.2   340  LYS340     -0.2718
    170  CB       107.0640   15.0880   21.6110 C.3   340  LYS340      0.0285
    171  CG       108.2220   15.7830   22.2800 C.3   340  LYS340      0.0035
    172  CD       108.7660   14.9240   23.4020 C.3   340  LYS340      0.0206
    173  CE       110.0210   15.5180   23.9980 C.3   340  LYS340      0.1093
    174  NZ       109.6890   16.7230   24.7770 N.3   340  LYS340     -0.1314
    175  N        105.3420   12.5150   21.4840 N.am  341  SER341     -0.1938
    176  CA       104.0720   11.8760   21.1550 C.3   341  SER341      0.2055
    177  C        102.9140   12.8310   21.4390 C.2   341  SER341      0.2643
    178  O        103.0360   13.7390   22.2690 O.2   341  SER341     -0.2714
    179  CB       103.8980   10.5790   21.9570 C.3   341  SER341      0.2130
    180  OG       104.0380   10.7940   23.3580 O.3   341  SER341     -0.2179
    181  N        101.8000   12.6180   20.7510 N.am  342  ARG342     -0.1963
    182  CA       100.6110   13.4410   20.9080 C.3   342  ARG342      0.1729
    183  C        100.0150   13.3270   22.3120 C.2   342  ARG342      0.2616
    184  O        100.3440   12.4110   23.0740 O.2   342  ARG342     -0.2715
    185  CB        99.5480   12.9760   19.9110 C.3   342  ARG342      0.0348
    186  CG        99.0310   11.5860   20.2350 C.3   342  ARG342      0.0492
    187  CD        98.1580   10.9960   19.1570 C.3   342  ARG342      0.2205
    188  NE        97.5540    9.7430   19.6000 N.pl3 342  ARG342     -0.0865
    189  CZ        96.5910    9.1050   18.9480 C.cat 342  ARG342      0.5346
    190  NH1       96.1240    9.5850   17.8050 N.pl3 342  ARG342      0.1354
    191  NH2       96.0400    8.0300   19.4820 N.pl3 342  ARG342      0.1354
    192  N         99.1420   14.2720   22.6370 N.am  343  ASP343     -0.1971
    193  CA        98.3990   14.2840   23.8870 C.3   343  ASP343      0.1709
    194  C         97.3510   15.3740   23.7280 C.2   343  ASP343      0.2293
    195  O         97.5170   16.2850   22.9130 O.2   343  ASP343     -0.2864
    196  CB        99.2930   14.4400   25.1310 C.3   343  ASP343      0.1436
    197  CG       100.1460   15.6840   25.1070 C.2   343  ASP343      0.3671
    198  OD1       99.5760   16.7790   25.0480 O.co2 343  ASP343     -0.2456
    199  OD2      101.3910   15.5760   25.1870 O.co2 343  ASP343     -0.2456
    200  N         96.5100   17.7980   25.5900 N.3   345  TYR345     -0.1227
    201  CA        96.9700   19.1020   26.0220 C.3   345  TYR345      0.1736
    202  C         97.6170   19.8470   24.8420 C.2   345  TYR345      0.2595
    203  O         97.2740   21.0030   24.5580 O.2   345  TYR345     -0.2718
    204  CB        97.9600   18.9410   27.1910 C.3   345  TYR345      0.0548
    205  CG        98.8060   20.1750   27.4560 C.ar  345  TYR345     -0.0200
    206  CD1       98.2670   21.3010   28.0970 C.ar  345  TYR345     -0.0009
    207  CD2      100.1450   20.2230   27.0500 C.ar  345  TYR345     -0.0009
    208  CE1       99.0530   22.4480   28.3250 C.ar  345  TYR345      0.0417
    209  CE2      100.9250   21.3550   27.2650 C.ar  345  TYR345      0.0417
    210  CZ       100.3710   22.4650   27.9030 C.ar  345  TYR345      0.1957
    211  OH       101.1310   23.5970   28.0760 O.3   345  TYR345     -0.2866
    212  N         98.5180   19.1810   24.1230 N.am  346  HIS346     -0.1975
    213  CA        99.1750   19.8250   22.9970 C.3   346  HIS346      0.1656
    214  C         98.2340   19.9880   21.8240 C.2   346  HIS346      0.2291
    215  O         98.3980   20.8920   21.0130 O.2   346  HIS346     -0.2864
    216  CB       100.4310   19.0810   22.5870 C.3   346  HIS346      0.0771
    217  CG       101.5910   19.3360   23.4880 C.ar  346  HIS346      0.0820
    218  ND1      101.9010   18.5190   24.5530 N.ar  346  HIS346     -0.2267
    219  CD2      102.4990   20.3400   23.5090 C.ar  346  HIS346      0.1154
    220  CE1      102.9430   19.0110   25.1970 C.ar  346  HIS346      0.1986
    221  NE2      103.3250   20.1150   24.5830 N.ar  346  HIS346     -0.2212
@<TRIPOS>BOND
     1   190   189    1
     2   189   191    1
     3   189   188    2
     4   187   188    1
     5   187   186    1
     6   169   168    2
     7   161   160    2
     8   185   186    1
     9   185   182    1
    10   166   167    1
    11   160   159    1
    12   168   167    1
    13   168   175   am
    14   181   182    1
    15   181   177   am
    16   182   183    1
    17   158   159    1
    18   215   214    2
    19   167   170    1
    20   176   177    1
    21   176   175    1
    22   176   179    1
    23   159   162    1
    24   120   121    2
    25   120   119    1
    26   177   178    2
    27   118   119    1
    28   170   171    1
    29   214   213    1
    30   119   122    1
    31   179   180    1
    32   171   172    1
    33   183   192   am
    34   183   184    2
    35   164   163   ar
    36   134   135    2
    37   134   133    1
    38   126   127    1
    39   216   213    1
    40   216   217    1
    41   162   163    1
    42   192   193    1
    43   195   194    2
    44   163   165   ar
    45   213   212    1
    46   124   123   ar
    47   127   128    1
    48   127   130    1
    49   132   133    1
    50   132   128   am
    51   172   173    1
    52   217   219   ar
    53   217   218   ar
    54   122   123    1
    55   219   221   ar
    56   133   136    1
    57   128   129    2
    58   136   137    1
    59    65    64    2
    60   194   193    1
    61   193   196    1
    62   173   174    1
    63   123   125   ar
    64   212   202   am
    65   218   220   ar
    66   203   202    2
    67   221   220   ar
    68   130   131    1
    69   144   145    1
    70   202   201    1
    71    64    63    1
    72   138   137   ar
    73   138   140   ar
    74   137   139   ar
    75   198   197   ar
    76   197   196    1
    77   197   199   ar
    78   146   145    1
    79   146   147    2
    80   200   201    1
    81   145   148    1
    82   201   204    1
    83    63    66    1
    84    63    62    1
    85   140   142   ar
    86   139   141   ar
    87    66    67    1
    88   148   149    1
    89   207   209   ar
    90   207   205   ar
    91   150   149   ar
    92   150   152   ar
    93   204   205    1
    94   209   210   ar
    95   142   141   ar
    96   142   143    1
    97   149   151   ar
    98   205   206   ar
    99    67    68   ar
   100    67    69   ar
   101   152   153   ar
   102    68    70   ar
   103    13    10    1
   104   210   211    1
   105   210   208   ar
   106   151   153   ar
   107   151   154   ar
   108   206   208   ar
   109   153   155   ar
   110    69    72   ar
   111    69    71   ar
   112   154   156   ar
   113    72    74   ar
   114    70    71   ar
   115   155   157   ar
   116    71    73   ar
   117   156   157   ar
   118    10     9    1
   119    10    11    1
   120    51    50    2
   121     9     3   am
   122    74    75   ar
   123     7     6   ar
   124     1     2    1
   125    11    12    2
   126    73    75   ar
   127    50    49    1
   128     6     8   ar
   129     6     5    1
   130     3     2    1
   131     3     4    2
   132     2     5    1
   133    35    34    1
   134    60    58   ar
   135    60    61   ar
   136    58    55   ar
   137    49    52    1
   138    49    48    1
   139    52    53    1
   140    61    59   ar
   141    34    33    1
   142    34    36    1
   143    55    53   ar
   144    55    57   ar
   145    28    27    1
   146    14    15    1
   147    33    30    1
   148    53    54   ar
   149    45    44    2
   150    59    57   ar
   151    57    56   ar
   152    27    24    1
   153    54    56   ar
   154    15    18    1
   155    15    16    1
   156    30    29    1
   157    30    31    1
   158    29    25   am
   159    23    24    1
   160    23    16   am
   161    19    18    1
   162    19    20    1
   163    44    43    1
   164    32    31    2
   165    46    43    1
   166    46    47    1
   167    20    22   ar
   168    20    21   ar
   169    24    25    1
   170    16    17    2
   171    25    26    2
   172    43    42    1
   173    89    88    2
   174    94    93    2
   175    42    39   am
   176   112   113    1
   177   112   111    1
   178   113   114    1
   179    88    87    1
   180    88    91   am
   181    92    93    1
   182    92    91    1
   183    92    95    1
   184    90    87    1
   185   111   108    1
   186   108   107    1
   187   108   109    1
   188    87    86    1
   189    91    97    1
   190   110   109    2
   191    95    96    1
   192    37    38    1
   193    39    40    2
   194    39    38    1
   195   114   115    2
   196   116   115    1
   197    97    96    1
   198    38    41    1
   199   115   117    1
   200    79    78    2
   201    84    82   ar
   202    84    85   ar
   203    82    81   ar
   204    78    77    1
   205    85    83   ar
   206    81    80    1
   207    81    83   ar
   208    80    77    1
   209   106   104   ar
   210    77    76    1
   211   104   103    1
   212   104   105   ar
   213   103   102    1
   214   102    99    1
   215   101   100    2
   216   100    99    1
   217    99    98    1
