@<TRIPOS>MOLECULE
tmp/1d8eB01.pdb
 170 166 0 0 0
SMALL
GASTEIGER

@<TRIPOS>ATOM
      1  N         90.3680   19.1610   32.8740 N.3    86  TRP86      -0.1241
      2  CA        91.2570   19.6930   31.8590 C.3    86  TRP86       0.1605
      3  C         91.0420   18.9650   30.5630 C.2    86  TRP86       0.2264
      4  O         91.0160   19.5720   29.5040 O.2    86  TRP86      -0.2867
      5  CB        92.7100   19.5420   32.2770 C.3    86  TRP86       0.0550
      6  CG        93.1550   20.6600   33.1400 C.ar   86  TRP86       0.0003
      7  CD1       93.4680   20.6120   34.4780 C.ar   86  TRP86       0.0946
      8  CD2       93.3800   22.0030   32.7220 C.ar   86  TRP86       0.0152
      9  NE1       93.8830   21.8460   34.9080 N.ar   86  TRP86      -0.2442
     10  CE2       93.8410   22.7200   33.8500 C.ar   86  TRP86       0.0810
     11  CE3       93.2470   22.6730   31.4970 C.ar   86  TRP86       0.0012
     12  CZ2       94.1700   24.0800   33.7850 C.ar   86  TRP86       0.0191
     13  CZ3       93.5760   24.0220   31.4330 C.ar   86  TRP86       0.0001
     14  CH2       94.0320   24.7100   32.5700 C.ar   86  TRP86       0.0015
     15  N         93.0140   24.9070   39.2460 N.3   135  ALA135     -0.1245
     16  CA        93.2020   24.5380   37.8480 C.3   135  ALA135      0.1562
     17  C         91.9840   23.7860   37.2810 C.2   135  ALA135      0.2260
     18  O         91.4130   24.1870   36.2560 O.2   135  ALA135     -0.2867
     19  CB        94.4920   23.7590   37.6650 C.3   135  ALA135      0.0290
     20  N         89.1260   26.1860   36.8230 N.3   138  TYR138     -0.1241
     21  CA        89.2210   27.0460   35.6550 C.3   138  TYR138      0.1605
     22  C         88.7430   26.2450   34.4580 C.2   138  TYR138      0.2264
     23  O         87.8920   26.6870   33.6760 O.2   138  TYR138     -0.2867
     24  CB        90.6750   27.4420   35.4360 C.3   138  TYR138      0.0534
     25  CG        90.9780   27.9600   34.0480 C.ar  138  TYR138     -0.0201
     26  CD1       90.6510   29.2690   33.6720 C.ar  138  TYR138     -0.0009
     27  CD2       91.6120   27.1510   33.1140 C.ar  138  TYR138     -0.0009
     28  CE1       90.9500   29.7570   32.3930 C.ar  138  TYR138      0.0417
     29  CE2       91.9150   27.6310   31.8370 C.ar  138  TYR138      0.0417
     30  CZ        91.5790   28.9290   31.4850 C.ar  138  TYR138      0.1957
     31  OH        91.8520   29.3640   30.2090 O.3   138  TYR138     -0.2866
     32  N         99.4390   31.2620   38.4310 N.3   186  ARG186     -0.1245
     33  CA        98.3090   30.5290   37.8760 C.3   186  ARG186      0.1563
     34  C         97.0380   30.7840   38.7180 C.2   186  ARG186      0.2260
     35  O         95.9750   31.1230   38.1800 O.2   186  ARG186     -0.2867
     36  CB        98.5910   29.0240   37.8680 C.3   186  ARG186      0.0307
     37  CG        99.6540   28.5460   36.9080 C.3   186  ARG186      0.0489
     38  CD        99.9280   27.0660   37.1550 C.3   186  ARG186      0.2205
     39  NE       100.3350   26.8360   38.5430 N.pl3 186  ARG186     -0.0865
     40  CZ       100.1670   25.6990   39.2200 C.cat 186  ARG186      0.5346
     41  NH1       99.6070   24.6390   38.6540 N.pl3 186  ARG186      0.1354
     42  NH2      100.5280   25.6330   40.4960 N.pl3 186  ARG186      0.1354
     43  N         95.2020   33.9760   37.8320 N.3   189  TYR189     -0.1227
     44  CA        94.5000   33.8420   36.5640 C.3   189  TYR189      0.1736
     45  C         93.2550   32.9700   36.6710 C.2   189  TYR189      0.2595
     46  O         92.1920   33.3350   36.1810 O.2   189  TYR189     -0.2718
     47  CB        95.4300   33.2650   35.5020 C.3   189  TYR189      0.0548
     48  CG        94.7480   32.9950   34.1790 C.ar  189  TYR189     -0.0200
     49  CD1       94.0530   33.9980   33.5030 C.ar  189  TYR189     -0.0009
     50  CD2       94.8370   31.7400   33.5770 C.ar  189  TYR189     -0.0009
     51  CE1       93.4680   33.7530   32.2510 C.ar  189  TYR189      0.0417
     52  CE2       94.2600   31.4840   32.3280 C.ar  189  TYR189      0.0417
     53  CZ        93.5820   32.4950   31.6710 C.ar  189  TYR189      0.1957
     54  OH        93.0550   32.2410   30.4320 O.3   189  TYR189     -0.2866
     55  N         93.3820   31.8140   37.2990 N.am  190  CYS190     -0.1970
     56  CA        92.2320   30.9350   37.4250 C.3   190  CYS190      0.1712
     57  C         91.1170   31.6310   38.1900 C.2   190  CYS190      0.2296
     58  O         89.9730   31.7010   37.7290 O.2   190  CYS190     -0.2864
     59  CB        92.6200   29.6320   38.1310 C.3   190  CYS190      0.0983
     60  SG        93.8790   28.6620   37.2500 S.3   190  CYS190     -0.0798
     61  N        108.5280   33.1230   32.1830 N.3   232  HIS232     -0.1241
     62  CA       108.0440   31.9510   31.4550 C.3   232  HIS232      0.1621
     63  C        106.6880   32.2100   30.8150 C.2   232  HIS232      0.2264
     64  O        105.7690   32.7210   31.4690 O.2   232  HIS232     -0.2867
     65  CB       107.9200   30.7740   32.4260 C.3   232  HIS232      0.0745
     66  CG       107.8270   29.4380   31.7610 C.ar  232  HIS232      0.0817
     67  ND1      106.6260   28.8760   31.3840 N.ar  232  HIS232     -0.2268
     68  CD2      108.7860   28.5350   31.4380 C.ar  232  HIS232      0.1154
     69  CE1      106.8490   27.6830   30.8560 C.ar  232  HIS232      0.1986
     70  NE2      108.1510   27.4530   30.8780 N.ar  232  HIS232     -0.2212
     71  N        103.9290   30.4630   30.1740 N.3   234  GLY234     -0.1210
     72  CA       102.7210   30.1080   30.8870 C.3   234  GLY234      0.1956
     73  C        102.3660   31.1090   31.9650 C.2   234  GLY234      0.2611
     74  O        101.2330   31.6100   32.0320 O.2   234  GLY234     -0.2717
     75  N        103.3610   31.4500   32.7780 N.am  235  TYR235     -0.1976
     76  CA       103.1460   32.3790   33.8790 C.3   235  TYR235      0.1639
     77  C        102.8750   33.7690   33.3550 C.2   235  TYR235      0.2290
     78  O        101.9270   34.4320   33.8020 O.2   235  TYR235     -0.2864
     79  CB       104.3390   32.3570   34.8340 C.3   235  TYR235      0.0560
     80  CG       104.4430   31.0580   35.6190 C.ar  235  TYR235     -0.0198
     81  CD1      105.6640   30.3680   35.7280 C.ar  235  TYR235     -0.0009
     82  CD2      103.3210   30.5220   36.2580 C.ar  235  TYR235     -0.0009
     83  CE1      105.7550   29.1760   36.4600 C.ar  235  TYR235      0.0417
     84  CE2      103.4000   29.3300   36.9900 C.ar  235  TYR235      0.0417
     85  CZ       104.6170   28.6630   37.0900 C.ar  235  TYR235      0.1957
     86  OH       104.6870   27.5080   37.8400 O.3   235  TYR235     -0.2866
     87  N         99.3910   33.8920   32.1370 N.3   238  CYS238     -0.1235
     88  CA        98.5340   33.9290   33.3180 C.3   238  CYS238      0.1677
     89  C         98.4860   35.3110   33.9080 C.2   238  CYS238      0.2270
     90  O         97.4120   35.8340   34.2080 O.2   238  CYS238     -0.2867
     91  CB        99.0530   32.9800   34.3930 C.3   238  CYS238      0.0956
     92  SG        98.6880   31.2410   34.1010 S.3   238  CYS238     -0.0801
     93  N        109.5510   28.5070   25.6710 N.3   274  GLY274     -0.1210
     94  CA       108.9040   28.9390   26.9020 C.3   274  GLY274      0.1956
     95  C        109.6850   30.0120   27.6420 C.2   274  GLY274      0.2611
     96  O        109.1180   30.9200   28.2660 O.2   274  GLY274     -0.2717
     97  N        111.0000   29.8920   27.5850 N.am  275  ARG275     -0.1979
     98  CA       111.8700   30.8340   28.2440 C.3   275  ARG275      0.1597
     99  C        113.1760   30.9230   27.4760 C.2   275  ARG275      0.2287
    100  O        113.6030   29.9540   26.8200 O.2   275  ARG275     -0.2864
    101  CB       112.0950   30.4080   29.6930 C.3   275  ARG275      0.0334
    102  CG       111.9620   28.9180   29.9420 C.3   275  ARG275      0.0492
    103  CD       112.0020   28.6260   31.4300 C.3   275  ARG275      0.2205
    104  NE       111.7890   27.2090   31.6940 N.pl3 275  ARG275     -0.0865
    105  CZ       112.5380   26.4810   32.5150 C.cat 275  ARG275      0.5346
    106  NH1      113.5560   27.0310   33.1650 N.pl3 275  ARG275      0.1354
    107  NH2      112.2880   25.1880   32.6610 N.pl3 275  ARG275      0.1354
    108  N        115.8620   28.1510   25.9570 N.3   278  LYS278     -0.1231
    109  CA       115.3110   26.8040   26.0760 C.3   278  LYS278      0.1693
    110  C        114.7080   26.3910   24.7240 C.2   278  LYS278      0.2591
    111  O        114.6530   27.2020   23.7920 O.2   278  LYS278     -0.2718
    112  CB       114.2990   26.6800   27.2270 C.3   278  LYS278      0.0285
    113  CG       114.9530   26.5760   28.6190 C.3   278  LYS278      0.0035
    114  CD       114.1620   25.6770   29.5720 C.3   278  LYS278      0.0206
    115  CE       114.2190   24.2260   29.1260 C.3   278  LYS278      0.1093
    116  NZ       113.6480   23.2950   30.1390 N.3   278  LYS278     -0.1314
    117  N        114.2380   25.1480   24.6300 N.am  279  LEU279     -0.1980
    118  CA       113.6860   24.6220   23.3820 C.3   279  LEU279      0.1596
    119  C        112.2790   25.0850   23.0350 C.2   279  LEU279      0.2287
    120  O        111.4940   25.4670   23.9100 O.2   279  LEU279     -0.2864
    121  CB       113.7380   23.0990   23.4020 C.3   279  LEU279      0.0297
    122  CG       115.1610   22.5940   23.6640 C.3   279  LEU279      0.0022
    123  CD1      115.1560   21.1040   23.9480 C.3   279  LEU279      0.0001
    124  CD2      116.0690   22.9170   22.4830 C.3   279  LEU279      0.0001
    125  N        108.3460   24.8210   21.5650 N.3   281  ASP281     -0.1239
    126  CA       107.2680   23.9120   21.9460 C.3   281  ASP281      0.1674
    127  C        105.9010   24.4000   21.4570 C.2   281  ASP281      0.2266
    128  O        105.4920   25.5520   21.6910 O.2   281  ASP281     -0.2867
    129  CB       107.2840   23.6900   23.4760 C.3   281  ASP281      0.1410
    130  CG       106.2010   22.7260   23.9690 C.2   281  ASP281      0.3668
    131  OD1      105.1490   22.5660   23.3230 O.co2 281  ASP281     -0.2456
    132  OD2      106.4020   22.1270   25.0400 O.co2 281  ASP281     -0.2456
    133  N        103.3400   26.6500   23.4070 N.3   284  TYR284     -0.1241
    134  CA       103.6640   28.0630   23.5040 C.3   284  TYR284      0.1605
    135  C        103.1190   28.8920   22.3730 C.2   284  TYR284      0.2264
    136  O        103.0060   30.1150   22.4850 O.2   284  TYR284     -0.2867
    137  CB       105.1550   28.2550   23.6930 C.3   284  TYR284      0.0534
    138  CG       105.6200   27.6080   24.9770 C.ar  284  TYR284     -0.0201
    139  CD1      106.7260   26.7620   24.9850 C.ar  284  TYR284     -0.0009
    140  CD2      104.9400   27.8170   26.1910 C.ar  284  TYR284     -0.0009
    141  CE1      107.1630   26.1240   26.1660 C.ar  284  TYR284      0.0417
    142  CE2      105.3660   27.1870   27.3850 C.ar  284  TYR284      0.0417
    143  CZ       106.4880   26.3340   27.3630 C.ar  284  TYR284      0.1957
    144  OH       106.9690   25.6860   28.5060 O.3   284  TYR284     -0.2866
    145  N        100.4180   30.0200   24.6330 N.3   287  TRP287     -0.1241
    146  CA       100.9550   30.6550   25.8410 C.3   287  TRP287      0.1605
    147  C        101.7010   31.9580   25.5590 C.2   287  TRP287      0.2264
    148  O        101.3250   33.0230   26.0700 O.2   287  TRP287     -0.2867
    149  CB       101.8450   29.6770   26.6290 C.3   287  TRP287      0.0550
    150  CG       101.0790   28.4910   27.2160 C.ar  287  TRP287      0.0003
    151  CD1      101.4220   27.1630   27.1200 C.ar  287  TRP287      0.0946
    152  CD2       99.8390   28.5310   27.9610 C.ar  287  TRP287      0.0152
    153  NE1      100.4770   26.3790   27.7520 N.ar  287  TRP287     -0.2442
    154  CE2       99.4980   27.1860   28.2780 C.ar  287  TRP287      0.0810
    155  CE3       98.9860   29.5670   28.3860 C.ar  287  TRP287      0.0012
    156  CZ2       98.3370   26.8490   29.0010 C.ar  287  TRP287      0.0191
    157  CZ3       97.8290   29.2310   29.1080 C.ar  287  TRP287      0.0001
    158  CH2       97.5180   27.8760   29.4060 C.ar  287  TRP287      0.0015
    159  N         96.7000   18.0240   25.5380 N.3   345  TYR345     -0.1241
    160  CA        97.1520   19.3280   25.9800 C.3   345  TYR345      0.1605
    161  C         97.7020   20.1000   24.7830 C.2   345  TYR345      0.2264
    162  O         97.2510   21.2060   24.4820 O.2   345  TYR345     -0.2867
    163  CB        98.2340   19.1670   27.0500 C.3   345  TYR345      0.0534
    164  CG        99.0340   20.4320   27.3570 C.ar  345  TYR345     -0.0201
    165  CD1       98.4610   21.5000   28.0580 C.ar  345  TYR345     -0.0009
    166  CD2      100.3810   20.5310   26.9990 C.ar  345  TYR345     -0.0009
    167  CE1       99.2150   22.6310   28.3980 C.ar  345  TYR345      0.0417
    168  CE2      101.1380   21.6500   27.3360 C.ar  345  TYR345      0.0417
    169  CZ       100.5500   22.6980   28.0350 C.ar  345  TYR345      0.1957
    170  OH       101.2950   23.8150   28.3500 O.3   345  TYR345     -0.2866
@<TRIPOS>BOND
     1   127   128    2
     2   127   126    1
     3   125   126    1
     4   126   129    1
     5   135   136    2
     6   135   134    1
     7   124   122    1
     8   119   118    1
     9   119   120    2
    10   131   130   ar
    11   118   121    1
    12   118   117    1
    13   121   122    1
    14   133   134    1
    15   129   130    1
    16   134   137    1
    17   122   123    1
    18   137   138    1
    19   111   110    2
    20   130   132   ar
    21   162   161    2
    22   117   110   am
    23   145   146    1
    24   110   109    1
    25   161   160    1
    26   138   139   ar
    27   138   140   ar
    28   139   141   ar
    29   159   160    1
    30   147   146    1
    31   147   148    2
    32    93    94    1
    33   146   149    1
    34   108   109    1
    35   160   163    1
    36   109   112    1
    37   141   143   ar
    38   140   142   ar
    39   149   150    1
    40   100    99    2
    41    94    95    1
    42   166   168   ar
    43   166   164   ar
    44   163   164    1
    45   151   150   ar
    46   151   153   ar
    47   150   152   ar
    48   112   113    1
    49   168   169   ar
    50   164   165   ar
    51   143   142   ar
    52   143   144    1
    53    99    98    1
    54    97    95   am
    55    97    98    1
    56    95    96    2
    57   153   154   ar
    58   152   154   ar
    59   152   155   ar
    60   169   170    1
    61   169   167   ar
    62   165   167   ar
    63    98   101    1
    64   154   156   ar
    65   155   157   ar
    66   113   114    1
    67   156   158   ar
    68   157   158   ar
    69   115   114    1
    70   115   116    1
    71     4     3    2
    72   101   102    1
    73   102   103    1
    74    71    72    1
    75    31    30    1
    76    54    53    1
    77     3     2    1
    78    63    62    1
    79    63    64    2
    80    69    70   ar
    81    69    67   ar
    82    70    68   ar
    83    72    73    1
    84    67    66   ar
    85   103   104    1
    86    13    11   ar
    87    13    14   ar
    88    68    66   ar
    89    62    61    1
    90    62    65    1
    91    30    29   ar
    92    30    28   ar
    93    11     8   ar
    94    53    51   ar
    95    53    52   ar
    96   104   105    2
    97    66    65    1
    98    29    27   ar
    99     2     5    1
   100     2     1    1
   101    73    74    2
   102    73    75   am
   103    87    88    1
   104    51    49   ar
   105     5     6    1
   106    52    50   ar
   107    28    26   ar
   108   105   107    1
   109   105   106    1
   110    14    12   ar
   111     8     6   ar
   112     8    10   ar
   113    75    76    1
   114    27    25   ar
   115     6     7   ar
   116    88    89    1
   117    88    91    1
   118    77    78    2
   119    77    76    1
   120    49    48   ar
   121    50    48   ar
   122    26    25   ar
   123    23    22    2
   124    12    10   ar
   125    10     9   ar
   126    76    79    1
   127    89    90    2
   128    25    24    1
   129    92    91    1
   130    48    47    1
   131    22    21    1
   132     7     9   ar
   133    79    80    1
   134    24    21    1
   135    47    44    1
   136    80    81   ar
   137    80    82   ar
   138    21    20    1
   139    81    83   ar
   140    46    45    2
   141    18    17    2
   142    82    84   ar
   143    83    85   ar
   144    44    45    1
   145    44    43    1
   146    45    55   am
   147    37    38    1
   148    37    36    1
   149    84    85   ar
   150    85    86    1
   151    38    39    1
   152    60    59    1
   153    17    16    1
   154    55    56    1
   155    56    59    1
   156    56    57    1
   157    19    16    1
   158    58    57    2
   159    16    15    1
   160    36    33    1
   161    33    32    1
   162    33    34    1
   163    35    34    2
   164    39    40    2
   165    41    40    1
   166    40    42    1
