@<TRIPOS>MOLECULE
tmp/1d8eB00.pdb
 163 161 0 0 0
SMALL
GASTEIGER

@<TRIPOS>ATOM
      1  N         97.0450    4.6380   29.8890 N.3    76  ALA76      -0.1231
      2  CA        98.1430    5.5810   29.7690 C.3    76  ALA76       0.1694
      3  C         97.7810    6.9280   30.3820 C.2    76  ALA76       0.2592
      4  O         98.6370    7.6410   30.9250 O.2    76  ALA76      -0.2718
      5  CB        98.5190    5.7460   28.3150 C.3    76  ALA76       0.0304
      6  N         96.5050    7.2770   30.3050 N.am   77  TYR77      -0.1976
      7  CA        96.0360    8.5440   30.8550 C.3    77  TYR77       0.1639
      8  C         95.7340    8.4350   32.3490 C.2    77  TYR77       0.2290
      9  O         94.8230    9.0750   32.8550 O.2    77  TYR77      -0.2864
     10  CB        94.8190    9.0580   30.0570 C.3    77  TYR77       0.0560
     11  CG        95.2360    9.9340   28.9000 C.ar   77  TYR77      -0.0198
     12  CD1       95.7040    9.3830   27.7070 C.ar   77  TYR77      -0.0009
     13  CD2       95.3090   11.3180   29.0500 C.ar   77  TYR77      -0.0009
     14  CE1       96.2560   10.2000   26.6930 C.ar   77  TYR77       0.0417
     15  CE2       95.8600   12.1400   28.0450 C.ar   77  TYR77       0.0417
     16  CZ        96.3360   11.5740   26.8760 C.ar   77  TYR77       0.1957
     17  OH        96.9360   12.3860   25.9350 O.3    77  TYR77      -0.2866
     18  N         97.9830    9.1100   35.0320 N.3    79  CYS79      -0.1221
     19  CA        98.5360   10.2340   35.7540 C.3    79  CYS79       0.1808
     20  C         97.8120   11.5330   35.4940 C.2    79  CYS79       0.2601
     21  O         98.2360   12.6030   35.9300 O.2    79  CYS79      -0.2717
     22  CB        99.9960   10.3610   35.4220 C.3    79  CYS79       0.0970
     23  SG       100.8350    8.9250   36.0280 S.3    79  CYS79      -0.0800
     24  N         96.7450   11.4420   34.7220 N.am   80  LEU80      -0.1979
     25  CA        95.9460   12.5970   34.4450 C.3    80  LEU80       0.1596
     26  C         94.6520   12.3740   35.1830 C.2    80  LEU80       0.2287
     27  O         93.6560   13.0440   34.9340 O.2    80  LEU80      -0.2864
     28  CB        95.7370   12.7570   32.9440 C.3    80  LEU80       0.0297
     29  CG        96.8070   13.7110   32.4210 C.3    80  LEU80       0.0022
     30  CD1       97.7690   13.0160   31.4890 C.3    80  LEU80       0.0001
     31  CD2       96.1360   14.8610   31.7350 C.3    80  LEU80       0.0001
     32  N         93.8790   13.1910   38.2200 N.3    82  ALA82      -0.1231
     33  CA        93.4800   14.2930   39.0640 C.3    82  ALA82       0.1694
     34  C         93.2310   15.5240   38.2220 C.2    82  ALA82       0.2592
     35  O         93.0300   16.5960   38.7650 O.2    82  ALA82      -0.2718
     36  CB        94.5670   14.5700   40.1080 C.3    82  ALA82       0.0304
     37  N         93.1460   15.3660   36.9060 N.am   83  SER83      -0.1952
     38  CA        92.9680   16.5230   36.0310 C.3    83  SER83       0.1924
     39  C         91.9470   16.2820   34.9330 C.2    83  SER83       0.2314
     40  O         92.0650   16.8220   33.8280 O.2    83  SER83      -0.2863
     41  CB        94.3120   16.8440   35.3820 C.3    83  SER83       0.2116
     42  OG        95.3920   16.5760   36.2710 O.3    83  SER83      -0.2180
     43  N         90.3680   19.1610   32.8740 N.3    86  TRP86      -0.1241
     44  CA        91.2570   19.6930   31.8590 C.3    86  TRP86       0.1605
     45  C         91.0420   18.9650   30.5630 C.2    86  TRP86       0.2264
     46  O         91.0160   19.5720   29.5040 O.2    86  TRP86      -0.2867
     47  CB        92.7100   19.5420   32.2770 C.3    86  TRP86       0.0550
     48  CG        93.1550   20.6600   33.1400 C.ar   86  TRP86       0.0003
     49  CD1       93.4680   20.6120   34.4780 C.ar   86  TRP86       0.0946
     50  CD2       93.3800   22.0030   32.7220 C.ar   86  TRP86       0.0152
     51  NE1       93.8830   21.8460   34.9080 N.ar   86  TRP86      -0.2442
     52  CE2       93.8410   22.7200   33.8500 C.ar   86  TRP86       0.0810
     53  CE3       93.2470   22.6730   31.4970 C.ar   86  TRP86       0.0012
     54  CZ2       94.1700   24.0800   33.7850 C.ar   86  TRP86       0.0191
     55  CZ3       93.5760   24.0220   31.4330 C.ar   86  TRP86       0.0001
     56  CH2       94.0320   24.7100   32.5700 C.ar   86  TRP86       0.0015
     57  N         90.3180   20.7740   27.2200 N.3    90  TRP90      -0.1241
     58  CA        91.2510   20.6310   26.1220 C.3    90  TRP90       0.1605
     59  C         90.5410   20.0980   24.8980 C.2    90  TRP90       0.2264
     60  O         90.6690   20.6540   23.8040 O.2    90  TRP90      -0.2867
     61  CB        92.3980   19.6810   26.4790 C.3    90  TRP90       0.0550
     62  CG        93.3980   20.2630   27.4070 C.ar   90  TRP90       0.0003
     63  CD1       93.6640   21.5820   27.6050 C.ar   90  TRP90       0.0946
     64  CD2       94.2640   19.5430   28.2830 C.ar   90  TRP90       0.0152
     65  NE1       94.6400   21.7310   28.5570 N.ar   90  TRP90      -0.2442
     66  CE2       95.0260   20.4930   28.9910 C.ar   90  TRP90       0.0810
     67  CE3       94.4740   18.1840   28.5360 C.ar   90  TRP90       0.0012
     68  CZ2       95.9790   20.1310   29.9380 C.ar   90  TRP90       0.0191
     69  CZ3       95.4280   17.8200   29.4780 C.ar   90  TRP90       0.0001
     70  CH2       96.1670   18.7930   30.1670 C.ar   90  TRP90       0.0015
     71  N         90.2370   22.3550   43.3590 N.3   133  HIS133     -0.1241
     72  CA        91.5470   22.9060   43.0340 C.3   133  HIS133      0.1621
     73  C         91.3230   23.9200   41.9320 C.2   133  HIS133      0.2264
     74  O         90.5820   23.6740   40.9890 O.2   133  HIS133     -0.2867
     75  CB        92.4310   21.7500   42.5430 C.3   133  HIS133      0.0745
     76  CG        93.8360   22.1350   42.1960 C.ar  133  HIS133      0.0817
     77  ND1       94.1470   22.9820   41.1520 N.ar  133  HIS133     -0.2268
     78  CD2       95.0230   21.7260   42.7130 C.ar  133  HIS133      0.1154
     79  CE1       95.4630   23.0730   41.0390 C.ar  133  HIS133      0.1986
     80  NE2       96.0170   22.3220   41.9750 N.ar  133  HIS133     -0.2212
     81  N         93.0140   24.9070   39.2460 N.3   135  ALA135     -0.1231
     82  CA        93.2020   24.5380   37.8480 C.3   135  ALA135      0.1679
     83  C         91.9840   23.7860   37.2810 C.2   135  ALA135      0.2434
     84  O         91.4130   24.1870   36.2560 O.2   135  ALA135     -0.2733
     85  CB        94.4920   23.7590   37.6650 C.3   135  ALA135      0.0304
     86  N         91.5600   22.6980   37.9480 N.am  136  PRO136     -0.2729
     87  CA        90.3990   21.9630   37.4450 C.3   136  PRO136      0.1401
     88  C         89.1790   22.8780   37.4310 C.2   136  PRO136      0.2269
     89  O         88.2890   22.7250   36.5860 O.2   136  PRO136     -0.2865
     90  CB        90.2210   20.8550   38.4820 C.3   136  PRO136      0.0296
     91  CG        91.6090   20.6040   38.9410 C.3   136  PRO136      0.0237
     92  CD        92.1850   21.9800   39.0710 C.3   136  PRO136      0.0939
     93  N        100.0640   25.0710   46.8490 N.3   182  GLU182     -0.1245
     94  CA       101.1190   26.0470   46.6120 C.3   182  GLU182      0.1567
     95  C        100.5410   27.3150   46.0080 C.2   182  GLU182      0.2260
     96  O         99.3590   27.3580   45.6290 O.2   182  GLU182     -0.2867
     97  CB       102.1720   25.4840   45.6590 C.3   182  GLU182      0.0388
     98  CG       101.6730   25.3010   44.2210 C.3   182  GLU182      0.1160
     99  CD       100.8160   24.0620   44.0360 C.2   182  GLU182      0.3649
    100  OE1      100.6080   23.2920   45.0050 O.co2 182  GLU182     -0.2457
    101  OE2      100.3660   23.8480   42.8960 O.co2 182  GLU182     -0.2457
    102  N         99.4390   31.2620   38.4310 N.3   186  ARG186     -0.1245
    103  CA        98.3090   30.5290   37.8760 C.3   186  ARG186      0.1563
    104  C         97.0380   30.7840   38.7180 C.2   186  ARG186      0.2260
    105  O         95.9750   31.1230   38.1800 O.2   186  ARG186     -0.2867
    106  CB        98.5910   29.0240   37.8680 C.3   186  ARG186      0.0307
    107  CG        99.6540   28.5460   36.9080 C.3   186  ARG186      0.0489
    108  CD        99.9280   27.0660   37.1550 C.3   186  ARG186      0.2205
    109  NE       100.3350   26.8360   38.5430 N.pl3 186  ARG186     -0.0865
    110  CZ       100.1670   25.6990   39.2200 C.cat 186  ARG186      0.5346
    111  NH1       99.6070   24.6390   38.6540 N.pl3 186  ARG186      0.1354
    112  NH2      100.5280   25.6330   40.4960 N.pl3 186  ARG186      0.1354
    113  N        100.4180   30.0200   24.6330 N.3   287  TRP287     -0.1241
    114  CA       100.9550   30.6550   25.8410 C.3   287  TRP287      0.1605
    115  C        101.7010   31.9580   25.5590 C.2   287  TRP287      0.2264
    116  O        101.3250   33.0230   26.0700 O.2   287  TRP287     -0.2867
    117  CB       101.8450   29.6770   26.6290 C.3   287  TRP287      0.0550
    118  CG       101.0790   28.4910   27.2160 C.ar  287  TRP287      0.0003
    119  CD1      101.4220   27.1630   27.1200 C.ar  287  TRP287      0.0946
    120  CD2       99.8390   28.5310   27.9610 C.ar  287  TRP287      0.0152
    121  NE1      100.4770   26.3790   27.7520 N.ar  287  TRP287     -0.2442
    122  CE2       99.4980   27.1860   28.2780 C.ar  287  TRP287      0.0810
    123  CE3       98.9860   29.5670   28.3860 C.ar  287  TRP287      0.0012
    124  CZ2       98.3370   26.8490   29.0010 C.ar  287  TRP287      0.0191
    125  CZ3       97.8290   29.2310   29.1080 C.ar  287  TRP287      0.0001
    126  CH2       97.5180   27.8760   29.4060 C.ar  287  TRP287      0.0015
    127  N        105.3940   12.6830   21.2140 N.3   341  SER341     -0.1202
    128  CA       104.0720   12.0970   20.9960 C.3   341  SER341      0.2020
    129  C        102.9120   13.0830   21.2350 C.2   341  SER341      0.2619
    130  O        103.0270   14.0300   22.0190 O.2   341  SER341     -0.2717
    131  CB       103.9050   10.8350   21.8540 C.3   341  SER341      0.2103
    132  OG       104.2220   11.0820   23.2150 O.3   341  SER341     -0.2182
    133  N        101.8060   12.8600   20.5360 N.am  342  ARG342     -0.1965
    134  CA       100.6250   13.7090   20.6410 C.3   342  ARG342      0.1729
    135  C         99.9480   13.5650   21.9990 C.2   342  ARG342      0.2616
    136  O        100.0870   12.5380   22.6670 O.2   342  ARG342     -0.2715
    137  CB        99.6250   13.2760   19.5870 C.3   342  ARG342      0.0348
    138  CG        99.1840   11.8530   19.8410 C.3   342  ARG342      0.0492
    139  CD        98.2340   11.3140   18.8120 C.3   342  ARG342      0.2205
    140  NE        97.7010   10.0320   19.2630 N.pl3 342  ARG342     -0.0865
    141  CZ        96.7570    9.3490   18.6280 C.cat 342  ARG342      0.5346
    142  NH1       96.2420    9.8220   17.4970 N.pl3 342  ARG342      0.1354
    143  NH2       96.2770    8.2330   19.1670 N.pl3 342  ARG342      0.1354
    144  N         99.1690   14.5680   22.3730 N.am  343  ASP343     -0.1971
    145  CA        98.4310   14.5450   23.6280 C.3   343  ASP343      0.1709
    146  C         97.4750   15.6960   23.5680 C.2   343  ASP343      0.2293
    147  O         97.7680   16.7330   22.9790 O.2   343  ASP343     -0.2864
    148  CB        99.3360   14.6630   24.8530 C.3   343  ASP343      0.1436
    149  CG       100.1210   15.9470   24.8690 C.2   343  ASP343      0.3671
    150  OD1       99.4990   17.0180   25.0250 O.co2 343  ASP343     -0.2456
    151  OD2      101.3630   15.8820   24.7320 O.co2 343  ASP343     -0.2456
    152  N         96.7000   18.0240   25.5380 N.3   345  TYR345     -0.1241
    153  CA        97.1520   19.3280   25.9800 C.3   345  TYR345      0.1605
    154  C         97.7020   20.1000   24.7830 C.2   345  TYR345      0.2264
    155  O         97.2510   21.2060   24.4820 O.2   345  TYR345     -0.2867
    156  CB        98.2340   19.1670   27.0500 C.3   345  TYR345      0.0534
    157  CG        99.0340   20.4320   27.3570 C.ar  345  TYR345     -0.0201
    158  CD1       98.4610   21.5000   28.0580 C.ar  345  TYR345     -0.0009
    159  CD2      100.3810   20.5310   26.9990 C.ar  345  TYR345     -0.0009
    160  CE1       99.2150   22.6310   28.3980 C.ar  345  TYR345      0.0417
    161  CE2      101.1380   21.6500   27.3360 C.ar  345  TYR345      0.0417
    162  CZ       100.5500   22.6980   28.0350 C.ar  345  TYR345      0.1957
    163  OH       101.2950   23.8150   28.3500 O.3   345  TYR345     -0.2866
@<TRIPOS>BOND
     1   142   141    1
     2   141   143    1
     3   141   140    2
     4   139   140    1
     5   139   138    1
     6   137   138    1
     7   137   134    1
     8   133   134    1
     9   133   129   am
    10   134   135    1
    11   128   127    1
    12   128   129    1
    13   128   131    1
    14   129   130    2
    15   131   132    1
    16   135   144   am
    17   135   136    2
    18   144   145    1
    19   147   146    2
    20   146   145    1
    21   145   148    1
    22    60    59    2
    23   155   154    2
    24   113   114    1
    25   151   149   ar
    26   154   153    1
    27   148   149    1
    28   149   150   ar
    29    59    58    1
    30   152   153    1
    31   115   114    1
    32   115   116    2
    33   114   117    1
    34    17    16    1
    35   153   156    1
    36    58    61    1
    37    58    57    1
    38    61    62    1
    39   117   118    1
    40    14    16   ar
    41    14    12   ar
    42    16    15   ar
    43   159   161   ar
    44   159   157   ar
    45   156   157    1
    46   119   118   ar
    47   119   121   ar
    48   118   120   ar
    49   161   162   ar
    50   157   158   ar
    51    62    63   ar
    52    62    64   ar
    53    63    65   ar
    54    12    11   ar
    55   121   122   ar
    56   120   122   ar
    57   120   123   ar
    58   162   163    1
    59   162   160   ar
    60    15    13   ar
    61   158   160   ar
    62   122   124   ar
    63    64    67   ar
    64    64    66   ar
    65     5     2    1
    66   123   125   ar
    67    67    69   ar
    68    65    66   ar
    69    11    13   ar
    70    11    10    1
    71    66    68   ar
    72   124   126   ar
    73   125   126   ar
    74    69    70   ar
    75    46    45    2
    76     2     1    1
    77     2     3    1
    78    68    70   ar
    79    10     7    1
    80     6     3   am
    81     6     7    1
    82     3     4    2
    83    45    44    1
    84     7     8    1
    85    55    53   ar
    86    55    56   ar
    87    30    29    1
    88    53    50   ar
    89    31    29    1
    90    44    47    1
    91    44    43    1
    92    47    48    1
    93     8     9    2
    94    29    28    1
    95    56    54   ar
    96    50    48   ar
    97    50    52   ar
    98    28    25    1
    99    48    49   ar
   100    54    52   ar
   101    40    39    2
   102    52    51   ar
   103    25    24    1
   104    25    26    1
   105    49    51   ar
   106    24    20   am
   107    39    38    1
   108    27    26    2
   109    18    19    1
   110    41    38    1
   111    41    42    1
   112    22    19    1
   113    22    23    1
   114    20    19    1
   115    20    21    2
   116    38    37    1
   117    84    83    2
   118    89    88    2
   119    37    34   am
   120   107   108    1
   121   107   106    1
   122   108   109    1
   123    83    82    1
   124    83    86   am
   125    88    87    1
   126    87    86    1
   127    87    90    1
   128    85    82    1
   129    82    81    1
   130   106   103    1
   131   103   102    1
   132   103   104    1
   133    86    92    1
   134   105   104    2
   135    32    33    1
   136    34    35    2
   137    34    33    1
   138    90    91    1
   139   109   110    2
   140   111   110    1
   141    91    92    1
   142    33    36    1
   143   110   112    1
   144    74    73    2
   145    79    77   ar
   146    79    80   ar
   147    77    76   ar
   148    73    72    1
   149    80    78   ar
   150    76    75    1
   151    76    78   ar
   152    75    72    1
   153   101    99   ar
   154    72    71    1
   155    99    98    1
   156    99   100   ar
   157    98    97    1
   158    96    95    2
   159    97    94    1
   160    95    94    1
   161    94    93    1
