@<TRIPOS>MOLECULE
tmp/1d8fB00.pdb
 150 151 0 0 0
SMALL
GASTEIGER

@<TRIPOS>ATOM
      1  N         10.3200   47.3120   49.8500 N.3    80  ASN80      -0.1225
      2  CA         9.3280   48.3560   49.5670 C.3    80  ASN80       0.1785
      3  C          7.8790   47.9970   49.9330 C.2    80  ASN80       0.2597
      4  O          7.6130   47.6590   51.0890 O.2    80  ASN80      -0.2718
      5  CB         9.4820   48.8480   48.1280 C.3    80  ASN80       0.1169
      6  CG        10.8630   49.4600   47.8660 C.2    80  ASN80       0.2627
      7  OD1       11.6410   48.9420   47.0660 O.2    80  ASN80      -0.2716
      8  ND2       11.1670   50.5690   48.5500 N.am   80  ASN80      -0.0877
      9  N          6.9310   48.1070   49.0060 N.am   81  VAL81      -0.1966
     10  CA         5.5460   47.7640   49.3540 C.3    81  VAL81       0.1727
     11  C          5.4080   46.2900   49.7310 C.2    81  VAL81       0.2616
     12  O          5.7140   45.4040   48.9350 O.2    81  VAL81      -0.2715
     13  CB         4.5560   48.0850   48.2160 C.3    81  VAL81       0.0290
     14  CG1        3.1450   47.6980   48.6290 C.3    81  VAL81       0.0023
     15  CG2        4.6110   49.5700   47.8720 C.3    81  VAL81       0.0023
     16  N          5.0050   46.0380   50.9690 N.am   82  LEU82      -0.1963
     17  CA         4.8330   44.6770   51.4920 C.3    82  LEU82       0.1728
     18  C          3.4150   44.1330   51.2930 C.2    82  LEU82       0.2616
     19  O          3.2240   42.9290   51.1910 O.2    82  LEU82      -0.2715
     20  CB         5.1770   44.6470   52.9910 C.3    82  LEU82       0.0311
     21  CG         6.4170   45.4420   53.4440 C.3    82  LEU82       0.0022
     22  CD1        6.5170   45.4680   54.9550 C.3    82  LEU82       0.0001
     23  CD2        7.6760   44.8600   52.8380 C.3    82  LEU82       0.0001
     24  N          2.4150   45.0140   51.2770 N.am   83  ALA83      -0.1963
     25  CA         1.0420   44.5730   51.0930 C.3    83  ALA83       0.1728
     26  C          0.0550   45.7220   50.9230 C.2    83  ALA83       0.2616
     27  O          0.4340   46.8910   50.9860 O.2    83  ALA83      -0.2715
     28  CB         0.6220   43.6850   52.2720 C.3    83  ALA83       0.0334
     29  N         -1.1950   45.3800   50.6160 N.am   84  HIS84      -0.1973
     30  CA        -2.2410   46.3770   50.4640 C.3    84  HIS84       0.1656
     31  C         -3.6760   45.8440   50.5000 C.2    84  HIS84       0.2291
     32  O         -4.0010   44.8070   49.9060 O.2    84  HIS84      -0.2864
     33  CB        -1.9840   47.3010   49.2540 C.3    84  HIS84       0.0771
     34  CG        -1.9380   46.6110   47.9220 C.ar   84  HIS84       0.0820
     35  ND1       -1.3360   47.1930   46.8270 N.ar   84  HIS84      -0.2267
     36  CD2       -2.5580   45.5040   47.4620 C.ar   84  HIS84       0.1154
     37  CE1       -1.5840   46.4720   45.7490 C.ar   84  HIS84       0.1986
     38  NE2       -2.3270   45.4370   46.1080 N.ar   84  HIS84      -0.2212
     39  N          1.4490   41.0410   62.1190 N.3   115  LEU115     -0.1231
     40  CA         1.6200   42.4840   62.2390 C.3   115  LEU115      0.1693
     41  C          1.1870   43.2870   61.0140 C.2   115  LEU115      0.2591
     42  O          0.5850   44.3490   61.1540 O.2   115  LEU115     -0.2718
     43  CB         3.0810   42.7570   62.5720 C.3   115  LEU115      0.0284
     44  CG         3.5010   44.0610   63.2190 C.3   115  LEU115      0.0019
     45  CD1        2.6290   44.3420   64.4200 C.3   115  LEU115      0.0001
     46  CD2        4.9450   43.8980   63.6420 C.3   115  LEU115      0.0001
     47  N          1.5480   42.8160   59.8200 N.am  116  VAL116     -0.1980
     48  CA         1.1430   43.4910   58.5760 C.3   116  VAL116      0.1595
     49  C         -0.3150   43.1450   58.2330 C.2   116  VAL116      0.2287
     50  O         -1.0510   43.9730   57.6920 O.2   116  VAL116     -0.2864
     51  CB         2.0620   43.1300   57.3890 C.3   116  VAL116      0.0276
     52  CG1        1.5740   43.7870   56.1010 C.3   116  VAL116      0.0022
     53  CG2        3.4720   43.5730   57.6880 C.3   116  VAL116      0.0022
     54  N         -2.4850   45.4490   60.1430 N.3   119  HIS119     -0.1226
     55  CA        -2.4650   46.7890   59.5590 C.3   119  HIS119      0.1752
     56  C         -3.3810   46.8170   58.3300 C.2   119  HIS119      0.2595
     57  O         -4.0790   47.7930   58.0890 O.2   119  HIS119     -0.2718
     58  CB        -1.0240   47.1440   59.1330 C.3   119  HIS119      0.0759
     59  CG        -0.8460   48.5490   58.6290 C.ar  119  HIS119      0.0818
     60  ND1       -0.0720   49.4760   59.2900 N.ar  119  HIS119     -0.2268
     61  CD2       -1.2140   49.1380   57.4670 C.ar  119  HIS119      0.1154
     62  CE1        0.0320   50.5720   58.5630 C.ar  119  HIS119      0.1986
     63  NE2       -0.6520   50.3950   57.4480 N.ar  119  HIS119     -0.2212
     64  N         -3.3980   45.7220   57.5790 N.am  120  GLU120     -0.1979
     65  CA        -4.2100   45.6490   56.3740 C.3   120  GLU120      0.1602
     66  C         -5.6970   45.5180   56.6190 C.2   120  GLU120      0.2287
     67  O         -6.4980   46.1210   55.9090 O.2   120  GLU120     -0.2864
     68  CB        -3.7170   44.5350   55.4630 C.3   120  GLU120      0.0415
     69  CG        -2.2390   44.6740   55.1160 C.3   120  GLU120      0.1163
     70  CD        -1.8900   46.0370   54.5530 C.2   120  GLU120      0.3649
     71  OE1       -2.6460   46.5230   53.6880 O.co2 120  GLU120     -0.2457
     72  OE2       -0.8790   46.6450   54.9910 O.co2 120  GLU120     -0.2457
     73  N         -7.3480   48.6220   57.0680 N.3   123  HIS123     -0.1241
     74  CA        -7.7430   49.2740   55.8230 C.3   123  HIS123      0.1621
     75  C         -9.0850   48.7460   55.3430 C.2   123  HIS123      0.2264
     76  O        -10.0000   49.5210   55.0780 O.2   123  HIS123     -0.2867
     77  CB        -6.6510   49.1170   54.7590 C.3   123  HIS123      0.0745
     78  CG        -5.4270   49.9380   55.0420 C.ar  123  HIS123      0.0817
     79  ND1       -5.4780   51.3020   55.2140 N.ar  123  HIS123     -0.2268
     80  CD2       -4.1270   49.5910   55.1950 C.ar  123  HIS123      0.1154
     81  CE1       -4.2720   51.7650   55.4600 C.ar  123  HIS123      0.1986
     82  NE2       -3.4270   50.7490   55.4560 N.ar  123  HIS123     -0.2212
     83  N         -7.3280   54.6390   57.4660 N.3   128  PHE128     -0.1227
     84  CA        -6.2530   54.9620   56.5510 C.3   128  PHE128      0.1736
     85  C         -4.9920   55.1780   57.4030 C.2   128  PHE128      0.2595
     86  O         -4.9400   54.7620   58.5530 O.2   128  PHE128     -0.2718
     87  CB        -6.6190   56.2140   55.7690 C.3   128  PHE128      0.0547
     88  CG        -5.7030   56.5110   54.6380 C.ar  128  PHE128     -0.0202
     89  CD1       -5.2140   55.4780   53.8290 C.ar  128  PHE128     -0.0042
     90  CD2       -5.2890   57.8110   54.3990 C.ar  128  PHE128     -0.0042
     91  CE1       -4.3370   55.7540   52.7820 C.ar  128  PHE128     -0.0003
     92  CE2       -4.4170   58.0910   53.3570 C.ar  128  PHE128     -0.0003
     93  CZ        -3.9360   57.0610   52.5570 C.ar  128  PHE128     -0.0000
     94  N         -4.0020   55.8850   56.8840 N.am  129  HIS129     -0.1975
     95  CA        -2.7760   56.1190   57.6510 C.3   129  HIS129      0.1656
     96  C         -2.8750   57.1780   58.7420 C.2   129  HIS129      0.2291
     97  O         -3.3840   58.2680   58.5280 O.2   129  HIS129     -0.2864
     98  CB        -1.6190   56.4600   56.7070 C.3   129  HIS129      0.0771
     99  CG        -1.2700   55.3480   55.7620 C.ar  129  HIS129      0.0820
    100  ND1       -0.7900   55.5760   54.4930 N.ar  129  HIS129     -0.2267
    101  CD2       -1.3110   54.0020   55.9110 C.ar  129  HIS129      0.1154
    102  CE1       -0.5440   54.4230   53.8970 C.ar  129  HIS129      0.1986
    103  NE2       -0.8530   53.4500   54.7400 N.ar  129  HIS129     -0.2212
    104  N         -0.5660   51.5650   65.1050 N.3   136  LEU136     -0.1245
    105  CA        -0.4500   50.4590   64.1600 C.3   136  LEU136      0.1561
    106  C         -0.6980   50.9270   62.7180 C.2   136  LEU136      0.2260
    107  O         -0.1670   50.3470   61.7650 O.2   136  LEU136     -0.2867
    108  CB        -1.4240   49.3400   64.5170 C.3   136  LEU136      0.0270
    109  CG        -1.5150   48.2060   63.5010 C.3   136  LEU136      0.0019
    110  CD1       -0.1500   47.5250   63.3550 C.3   136  LEU136      0.0001
    111  CD2       -2.5870   47.2160   63.9250 C.3   136  LEU136      0.0001
    112  N          0.3230   53.6380   61.3220 N.3   138  TYR138     -0.1228
    113  CA         1.3740   54.4970   60.7890 C.3   138  TYR138      0.1721
    114  C          2.0560   53.7110   59.6420 C.2   138  TYR138      0.2437
    115  O          2.4270   52.5480   59.8060 O.2   138  TYR138     -0.2733
    116  CB         2.3600   54.8700   61.8980 C.3   138  TYR138      0.0547
    117  CG         3.3260   55.9470   61.5210 C.ar  138  TYR138     -0.0200
    118  CD1        2.9200   57.2730   61.4660 C.ar  138  TYR138     -0.0009
    119  CD2        4.6390   55.6440   61.1860 C.ar  138  TYR138     -0.0009
    120  CE1        3.8030   58.2870   61.0900 C.ar  138  TYR138      0.0417
    121  CE2        5.5280   56.6480   60.8070 C.ar  138  TYR138      0.0417
    122  CZ         5.0990   57.9640   60.7640 C.ar  138  TYR138      0.1957
    123  OH         5.9760   58.9540   60.4150 O.3   138  TYR138     -0.2866
    124  N          2.2170   54.3450   58.4690 N.am  139  PRO139     -0.2718
    125  CA         2.8210   53.7590   57.2590 C.3   139  PRO139      0.1535
    126  C          4.3040   53.3360   57.2860 C.2   139  PRO139      0.2598
    127  O          5.0260   53.4930   56.2980 O.2   139  PRO139     -0.2715
    128  CB         2.5680   54.8450   56.2150 C.3   139  PRO139      0.0310
    129  CG         2.6630   56.1230   57.0370 C.3   139  PRO139      0.0237
    130  CD         1.8710   55.7600   58.2570 C.3   139  PRO139      0.0939
    131  N          4.7480   52.7390   58.3940 N.am  140  LEU140     -0.1964
    132  CA         6.1240   52.2870   58.4910 C.3   140  LEU140      0.1728
    133  C          6.2390   51.0120   59.3030 C.2   140  LEU140      0.2616
    134  O          5.7310   50.9130   60.4120 O.2   140  LEU140     -0.2715
    135  CB         7.0030   53.3840   59.1020 C.3   140  LEU140      0.0311
    136  CG         8.5040   53.1770   59.3530 C.3   140  LEU140      0.0022
    137  CD1        9.2370   52.8190   58.0700 C.3   140  LEU140      0.0001
    138  CD2        9.0650   54.4760   59.9300 C.3   140  LEU140      0.0001
    139  N          6.8400   50.0050   58.6930 N.am  141  TYR141     -0.1974
    140  CA         7.0600   48.7250   59.3570 C.3   141  TYR141      0.1639
    141  C          8.4790   48.7390   59.9060 C.2   141  TYR141      0.2290
    142  O          9.3740   49.3120   59.2910 O.2   141  TYR141     -0.2864
    143  CB         6.9000   47.5710   58.3500 C.3   141  TYR141      0.0560
    144  CG         7.2160   46.2130   58.9060 C.ar  141  TYR141     -0.0198
    145  CD1        6.2880   45.5290   59.6690 C.ar  141  TYR141     -0.0009
    146  CD2        8.4690   45.6340   58.7240 C.ar  141  TYR141     -0.0009
    147  CE1        6.6000   44.2920   60.2430 C.ar  141  TYR141      0.0417
    148  CE2        8.7880   44.3870   59.2990 C.ar  141  TYR141      0.0417
    149  CZ         7.8520   43.7350   60.0590 C.ar  141  TYR141      0.1957
    150  OH         8.1560   42.5420   60.6690 O.3   141  TYR141     -0.2866
@<TRIPOS>BOND
     1    37    38   ar
     2    37    35   ar
     3    38    36   ar
     4    35    34   ar
     5     7     6    2
     6    36    34   ar
     7     6     5    1
     8     6     8   am
     9    15    13    1
    10    34    33    1
    11     5     2    1
    12    13    14    1
    13    13    10    1
    14    12    11    2
    15     9    10    1
    16     9     3   am
    17    33    30    1
    18    10    11    1
    19     2     1    1
    20     2     3    1
    21    11    16   am
    22    32    31    2
    23     3     4    2
    24    30    31    1
    25    30    29    1
    26    29    26   am
    27    26    27    2
    28    26    25    1
    29    16    17    1
    30    25    24    1
    31    25    28    1
    32    19    18    2
    33    24    18   am
    34    18    17    1
    35    17    20    1
    36    93    91   ar
    37    93    92   ar
    38    91    89   ar
    39    23    21    1
    40    20    21    1
    41    92    90   ar
    42    21    22    1
    43    71    70   ar
    44    89    88   ar
    45   102   100   ar
    46   102   103   ar
    47    90    88   ar
    48   100    99   ar
    49    70    72   ar
    50    70    69    1
    51    88    87    1
    52   103   101   ar
    53    77    78    1
    54    77    74    1
    55    78    80   ar
    56    78    79   ar
    57    76    75    2
    58    69    68    1
    59    80    82   ar
    60    79    81   ar
    61    75    74    1
    62    82    81   ar
    63    68    65    1
    64    99   101   ar
    65    99    98    1
    66    87    84    1
    67    74    73    1
    68    67    66    2
    69    52    51    1
    70   128   129    1
    71   128   125    1
    72   127   126    2
    73    65    66    1
    74    65    64    1
    75    84    85    1
    76    84    83    1
    77    98    95    1
    78    94    85   am
    79    94    95    1
    80   129   130    1
    81   125   126    1
    82   125   124    1
    83   126   131   am
    84    51    53    1
    85    51    48    1
    86    85    86    2
    87    63    61   ar
    88    63    62   ar
    89    61    59   ar
    90    64    56   am
    91    95    96    1
    92    50    49    2
    93   137   136    1
    94    57    56    2
    95    49    48    1
    96   130   124    1
    97    56    55    1
    98   143   144    1
    99   143   140    1
   100   131   132    1
   101   124   114   am
   102   132   135    1
   103   132   133    1
   104    97    96    2
   105    62    60   ar
   106    48    47    1
   107    59    58    1
   108    59    60   ar
   109   139   133   am
   110   139   140    1
   111   146   144   ar
   112   146   148   ar
   113   144   145   ar
   114   135   136    1
   115    58    55    1
   116   142   141    2
   117   148   149   ar
   118   133   134    2
   119   136   138    1
   120   140   141    1
   121    55    54    1
   122   114   115    2
   123   114   113    1
   124   145   147   ar
   125    47    41   am
   126   149   147   ar
   127   149   150    1
   128   123   122    1
   129   122   121   ar
   130   122   120   ar
   131   113   112    1
   132   113   116    1
   133   121   119   ar
   134    41    42    2
   135    41    40    1
   136   120   118   ar
   137   119   117   ar
   138   118   117   ar
   139   117   116    1
   140   107   106    2
   141    39    40    1
   142    40    43    1
   143    43    44    1
   144   106   105    1
   145    44    46    1
   146    44    45    1
   147   110   109    1
   148   109   111    1
   149   109   108    1
   150   105   108    1
   151   105   104    1
