@<TRIPOS>MOLECULE
tmp/1d8mB00.pdb
 139 139 0 0 0
SMALL
GASTEIGER

@<TRIPOS>ATOM
      1  N         10.1600   46.8410   49.4830 N.3    80  ASN80      -0.1225
      2  CA         9.2190   47.9280   49.2070 C.3    80  ASN80       0.1785
      3  C          7.7730   47.5370   49.5400 C.2    80  ASN80       0.2597
      4  O          7.5130   47.0550   50.6360 O.2    80  ASN80      -0.2718
      5  CB         9.3650   48.4040   47.7560 C.3    80  ASN80       0.1169
      6  CG        10.6440   49.2010   47.5320 C.2    80  ASN80       0.2627
      7  OD1       11.5510   48.7510   46.8550 O.2    80  ASN80      -0.2716
      8  ND2       10.7060   50.3950   48.0940 N.am   80  ASN80      -0.0877
      9  N          6.8350   47.7030   48.6170 N.am   81  VAL81      -0.1966
     10  CA         5.4560   47.3270   48.9380 C.3    81  VAL81       0.1727
     11  C          5.3860   45.8690   49.4030 C.2    81  VAL81       0.2616
     12  O          5.9190   44.9570   48.7380 O.2    81  VAL81      -0.2715
     13  CB         4.5140   47.5200   47.7470 C.3    81  VAL81       0.0290
     14  CG1        3.0910   47.1530   48.1360 C.3    81  VAL81       0.0023
     15  CG2        4.5630   48.9610   47.2820 C.3    81  VAL81       0.0023
     16  N          4.7590   45.6670   50.5590 N.am   82  LEU82      -0.1963
     17  CA         4.6120   44.3440   51.1550 C.3    82  LEU82       0.1728
     18  C          3.2310   43.7310   50.9180 C.2    82  LEU82       0.2616
     19  O          3.0900   42.5090   50.8270 O.2    82  LEU82      -0.2715
     20  CB         4.8760   44.4260   52.6550 C.3    82  LEU82       0.0311
     21  CG         6.1590   45.1200   53.1070 C.3    82  LEU82       0.0022
     22  CD1        6.1740   45.1950   54.6290 C.3    82  LEU82       0.0001
     23  CD2        7.4000   44.4010   52.5750 C.3    82  LEU82       0.0001
     24  N          2.2100   44.5770   50.8230 N.am   83  ALA83      -0.1963
     25  CA         0.8400   44.1050   50.5980 C.3    83  ALA83       0.1728
     26  C         -0.1200   45.2770   50.3730 C.2    83  ALA83       0.2616
     27  O          0.2580   46.4340   50.5310 O.2    83  ALA83      -0.2715
     28  CB         0.3640   43.2550   51.8010 C.3    83  ALA83       0.0334
     29  N         -1.3370   44.9650   49.9370 N.am   84  HIS84      -0.1973
     30  CA        -2.3580   45.9850   49.7250 C.3    84  HIS84       0.1656
     31  C         -3.7910   45.4600   49.8280 C.2    84  HIS84       0.2291
     32  O         -4.0930   44.3330   49.4220 O.2    84  HIS84      -0.2864
     33  CB        -2.1430   46.7860   48.4250 C.3    84  HIS84       0.0771
     34  CG        -2.2210   45.9810   47.1620 C.ar   84  HIS84       0.0820
     35  ND1       -1.5190   46.3260   46.0250 N.ar   84  HIS84      -0.2267
     36  CD2       -2.9510   44.8900   46.8370 C.ar   84  HIS84       0.1154
     37  CE1       -1.8110   45.4810   45.0540 C.ar   84  HIS84       0.1986
     38  NE2       -2.6810   44.5990   45.5200 N.ar   84  HIS84      -0.2212
     39  N          1.3520   41.0180   61.7130 N.3   115  LEU115     -0.1231
     40  CA         1.3590   42.4810   61.7630 C.3   115  LEU115      0.1693
     41  C          0.7970   43.1200   60.4950 C.2   115  LEU115      0.2591
     42  O         -0.0950   43.9630   60.5490 O.2   115  LEU115     -0.2718
     43  CB         2.7760   43.0220   62.0110 C.3   115  LEU115      0.0284
     44  CG         3.3960   43.0470   63.4100 C.3   115  LEU115      0.0019
     45  CD1        4.6620   43.8860   63.3300 C.3   115  LEU115      0.0001
     46  CD2        2.4320   43.6320   64.4350 C.3   115  LEU115      0.0001
     47  N          1.3060   42.6880   59.3490 N.am  116  VAL116     -0.1980
     48  CA         0.8600   43.2240   58.0700 C.3   116  VAL116      0.1595
     49  C         -0.6080   42.8740   57.8130 C.2   116  VAL116      0.2287
     50  O         -1.3610   43.6950   57.2940 O.2   116  VAL116     -0.2864
     51  CB         1.7510   42.7270   56.9190 C.3   116  VAL116      0.0276
     52  CG1        1.3370   43.3650   55.6040 C.3   116  VAL116      0.0022
     53  CG2        3.2070   43.0550   57.2260 C.3   116  VAL116      0.0022
     54  N         -2.7260   45.2540   59.7700 N.3   119  HIS119     -0.1226
     55  CA        -2.7510   46.5430   59.0940 C.3   119  HIS119      0.1752
     56  C         -3.6360   46.5170   57.8410 C.2   119  HIS119      0.2595
     57  O         -4.3800   47.4590   57.5720 O.2   119  HIS119     -0.2718
     58  CB        -1.3160   46.9490   58.7410 C.3   119  HIS119      0.0759
     59  CG        -1.2130   48.2170   57.9500 C.ar  119  HIS119      0.0818
     60  ND1       -0.7380   49.3950   58.4880 N.ar  119  HIS119     -0.2268
     61  CD2       -1.4850   48.4880   56.6490 C.ar  119  HIS119      0.1154
     62  CE1       -0.7180   50.3290   57.5590 C.ar  119  HIS119      0.1986
     63  NE2       -1.1660   49.8060   56.4290 N.ar  119  HIS119     -0.2212
     64  N         -3.5560   45.4330   57.0790 N.am  120  GLU120     -0.1979
     65  CA        -4.3450   45.2940   55.8560 C.3   120  GLU120      0.1602
     66  C         -5.8460   45.2170   56.1120 C.2   120  GLU120      0.2287
     67  O         -6.6440   45.8080   55.3840 O.2   120  GLU120     -0.2864
     68  CB        -3.8790   44.0680   55.0550 C.3   120  GLU120      0.0415
     69  CG        -2.4960   44.2180   54.4530 C.3   120  GLU120      0.1163
     70  CD        -2.3070   45.5710   53.7970 C.2   120  GLU120      0.3649
     71  OE1       -3.0610   45.8940   52.8570 O.co2 120  GLU120     -0.2457
     72  OE2       -1.4110   46.3230   54.2340 O.co2 120  GLU120     -0.2457
     73  N         -7.5090   48.4250   56.5040 N.3   123  HIS123     -0.1241
     74  CA        -7.8930   49.0000   55.2170 C.3   123  HIS123      0.1621
     75  C         -9.2200   48.3800   54.7740 C.2   123  HIS123      0.2264
     76  O        -10.1710   49.0840   54.4270 O.2   123  HIS123     -0.2867
     77  CB        -6.8140   48.7270   54.1620 C.3   123  HIS123      0.0745
     78  CG        -5.5660   49.5330   54.3490 C.ar  123  HIS123      0.0817
     79  ND1       -5.5880   50.8650   54.7010 N.ar  123  HIS123     -0.2268
     80  CD2       -4.2580   49.1970   54.2350 C.ar  123  HIS123      0.1154
     81  CE1       -4.3500   51.3160   54.7960 C.ar  123  HIS123      0.1986
     82  NE2       -3.5220   50.3230   54.5180 N.ar  123  HIS123     -0.2212
     83  N         -4.3310   55.6150   56.3350 N.3   129  HIS129     -0.1241
     84  CA        -3.0910   55.7700   57.0910 C.3   129  HIS129      0.1621
     85  C         -3.1000   56.8540   58.1560 C.2   129  HIS129      0.2264
     86  O         -3.5360   57.9730   57.9230 O.2   129  HIS129     -0.2867
     87  CB        -1.8990   55.9510   56.1600 C.3   129  HIS129      0.0745
     88  CG        -1.5770   54.7300   55.3590 C.ar  129  HIS129      0.0817
     89  ND1       -1.2560   54.7840   54.0210 N.ar  129  HIS129     -0.2268
     90  CD2       -1.5260   53.4210   55.7070 C.ar  129  HIS129      0.1154
     91  CE1       -1.0210   53.5630   53.5770 C.ar  129  HIS129      0.1986
     92  NE2       -1.1790   52.7160   54.5800 N.ar  129  HIS129     -0.2212
     93  N         -0.7480   51.1270   64.4420 N.3   136  LEU136     -0.1245
     94  CA        -0.7400   50.0650   63.4350 C.3   136  LEU136      0.1561
     95  C         -0.9900   50.5790   62.0200 C.2   136  LEU136      0.2260
     96  O         -0.3760   50.1020   61.0700 O.2   136  LEU136     -0.2867
     97  CB        -1.7830   48.9950   63.7680 C.3   136  LEU136      0.0270
     98  CG        -1.8940   47.8310   62.7750 C.3   136  LEU136      0.0019
     99  CD1       -0.5580   47.0960   62.6590 C.3   136  LEU136      0.0001
    100  CD2       -2.9840   46.8650   63.2100 C.3   136  LEU136      0.0001
    101  N         -0.1320   53.3770   60.7060 N.3   138  TYR138     -0.1228
    102  CA         0.9020   54.2650   60.1830 C.3   138  TYR138      0.1721
    103  C          1.5850   53.4280   59.1070 C.2   138  TYR138      0.2437
    104  O          1.9380   52.2690   59.3410 O.2   138  TYR138     -0.2733
    105  CB         1.9030   54.6550   61.2820 C.3   138  TYR138      0.0547
    106  CG         2.9600   55.6440   60.8360 C.ar  138  TYR138     -0.0200
    107  CD1        2.7060   57.0130   60.8250 C.ar  138  TYR138     -0.0009
    108  CD2        4.2040   55.2110   60.3970 C.ar  138  TYR138     -0.0009
    109  CE1        3.6690   57.9200   60.3860 C.ar  138  TYR138      0.0417
    110  CE2        5.1660   56.1100   59.9590 C.ar  138  TYR138      0.0417
    111  CZ         4.8950   57.4620   59.9510 C.ar  138  TYR138      0.1957
    112  OH         5.8490   58.3420   59.5010 O.3   138  TYR138     -0.2866
    113  N          1.7630   53.9910   57.9020 N.am  139  PRO139     -0.2718
    114  CA         2.3940   53.2780   56.7870 C.3   139  PRO139      0.1535
    115  C          3.8740   52.9200   56.8820 C.2   139  PRO139      0.2598
    116  O          4.6040   53.0740   55.9050 O.2   139  PRO139     -0.2715
    117  CB         2.1360   54.2060   55.6070 C.3   139  PRO139      0.0310
    118  CG         2.2180   55.5640   56.2350 C.3   139  PRO139      0.0237
    119  CD         1.5060   55.4040   57.5600 C.3   139  PRO139      0.0939
    120  N          4.3120   52.4120   58.0270 N.am  140  LEU140     -0.1964
    121  CA         5.7160   52.0420   58.1600 C.3   140  LEU140      0.1728
    122  C          5.8990   50.7680   58.9750 C.2   140  LEU140      0.2616
    123  O          5.5150   50.7030   60.1440 O.2   140  LEU140     -0.2715
    124  CB         6.5160   53.1890   58.7820 C.3   140  LEU140      0.0311
    125  CG         8.0380   53.0600   58.6910 C.3   140  LEU140      0.0022
    126  CD1        8.4750   52.7840   57.2530 C.3   140  LEU140      0.0001
    127  CD2        8.6750   54.3300   59.2190 C.3   140  LEU140      0.0001
    128  N          6.4660   49.7490   58.3380 N.am  141  TYR141     -0.1974
    129  CA         6.7220   48.4680   58.9860 C.3   141  TYR141      0.1639
    130  C          8.0010   48.5730   59.8170 C.2   141  TYR141      0.2290
    131  O          9.1120   48.5170   59.2930 O.2   141  TYR141     -0.2864
    132  CB         6.8500   47.3610   57.9340 C.3   141  TYR141      0.0560
    133  CG         7.0480   45.9790   58.5130 C.ar  141  TYR141     -0.0198
    134  CD1        5.9590   45.2100   58.9310 C.ar  141  TYR141     -0.0009
    135  CD2        8.3280   45.4520   58.6740 C.ar  141  TYR141     -0.0009
    136  CE1        6.1450   43.9580   59.4970 C.ar  141  TYR141      0.0417
    137  CE2        8.5210   44.2010   59.2410 C.ar  141  TYR141      0.0417
    138  CZ         7.4280   43.4600   59.6550 C.ar  141  TYR141      0.1957
    139  OH         7.6260   42.2450   60.2620 O.3   141  TYR141     -0.2866
@<TRIPOS>BOND
     1    37    38   ar
     2    37    35   ar
     3    38    36   ar
     4    35    34   ar
     5    36    34   ar
     6     7     6    2
     7    34    33    1
     8    15    13    1
     9     6     5    1
    10     6     8   am
    11    13    14    1
    12    13    10    1
    13     5     2    1
    14    33    30    1
    15     9    10    1
    16     9     3   am
    17    12    11    2
    18    10    11    1
    19     2     1    1
    20     2     3    1
    21    11    16   am
    22    32    31    2
    23     3     4    2
    24    30    31    1
    25    30    29    1
    26    29    26   am
    27    26    27    2
    28    26    25    1
    29    16    17    1
    30    25    24    1
    31    25    28    1
    32    24    18   am
    33    19    18    2
    34    18    17    1
    35    17    20    1
    36    23    21    1
    37    20    21    1
    38    71    70   ar
    39    21    22    1
    40    91    89   ar
    41    91    92   ar
    42    70    72   ar
    43    70    69    1
    44    89    88   ar
    45    77    78    1
    46    77    74    1
    47    80    78   ar
    48    80    82   ar
    49    78    79   ar
    50    76    75    2
    51    69    68    1
    52    82    81   ar
    53    92    90   ar
    54    79    81   ar
    55    75    74    1
    56    68    65    1
    57    74    73    1
    58    88    90   ar
    59    88    87    1
    60    67    66    2
    61    52    51    1
    62   117   118    1
    63   117   114    1
    64    65    66    1
    65    65    64    1
    66   116   115    2
    67    87    84    1
    68   118   119    1
    69    83    84    1
    70    63    61   ar
    71    63    62   ar
    72    61    59   ar
    73   114   115    1
    74   114   113    1
    75   115   120   am
    76    51    53    1
    77    51    48    1
    78    64    56   am
    79    84    85    1
    80   126   125    1
    81    50    49    2
    82    62    60   ar
    83   119   113    1
    84    57    56    2
    85    49    48    1
    86    56    55    1
    87   113   103   am
    88    86    85    2
    89   132   133    1
    90   132   129    1
    91    59    60   ar
    92    59    58    1
    93   120   121    1
    94    48    47    1
    95   121   124    1
    96   121   122    1
    97   128   122   am
    98   128   129    1
    99   133   135   ar
   100   133   134   ar
   101   135   137   ar
   102   125   124    1
   103   125   127    1
   104    58    55    1
   105   134   136   ar
   106   122   123    2
   107   129   130    1
   108    55    54    1
   109   103   104    2
   110   103   102    1
   111   137   138   ar
   112   131   130    2
   113    47    41   am
   114   136   138   ar
   115   112   111    1
   116   138   139    1
   117   111   110   ar
   118   111   109   ar
   119   110   108   ar
   120   102   101    1
   121   102   105    1
   122   109   107   ar
   123   108   106   ar
   124    41    42    2
   125    41    40    1
   126   107   106   ar
   127   106   105    1
   128    96    95    2
   129    39    40    1
   130    40    43    1
   131    43    44    1
   132    95    94    1
   133    99    98    1
   134    98   100    1
   135    98    97    1
   136    45    44    1
   137    44    46    1
   138    94    97    1
   139    94    93    1
