@<TRIPOS>MOLECULE
tmp/1d9iA01.pdb
 207 207 0 0 0
SMALL
GASTEIGER

@<TRIPOS>ATOM
      1  N         22.6360   -7.1160   18.5770 N.3    71  HIS71      -0.1241
      2  CA        22.2980   -8.4770   18.2080 C.3    71  HIS71       0.1621
      3  C         21.5870   -8.5750   16.8680 C.2    71  HIS71       0.2264
      4  O         21.5690   -9.7050   16.3350 O.2    71  HIS71      -0.2867
      5  CB        21.5130   -9.3250   19.2060 C.3    71  HIS71       0.0745
      6  CG        20.0530   -9.2320   19.3090 C.ar   71  HIS71       0.0817
      7  ND1       19.4080   -8.4470   20.2310 N.ar   71  HIS71      -0.2268
      8  CD2       19.0500   -9.8490   18.6670 C.ar   71  HIS71       0.1154
      9  CE1       18.0880   -8.6080   20.1720 C.ar   71  HIS71       0.1986
     10  NE2       17.8570   -9.4060   19.2010 N.ar   71  HIS71      -0.2212
     11  N         25.7980  -11.2980   15.6230 N.3    75  TYR75      -0.1241
     12  CA        25.6890  -12.4470   16.5350 C.3    75  TYR75       0.1605
     13  C         26.4540  -13.6300   15.9430 C.2    75  TYR75       0.2264
     14  O         25.9020  -14.4150   15.1500 O.2    75  TYR75      -0.2867
     15  CB        24.2360  -12.8490   16.7820 C.3    75  TYR75       0.0534
     16  CG        24.1020  -13.6520   18.0790 C.ar   75  TYR75      -0.0201
     17  CD1       24.7210  -13.1900   19.2470 C.ar   75  TYR75      -0.0009
     18  CD2       23.3780  -14.8490   18.0990 C.ar   75  TYR75      -0.0009
     19  CE1       24.6200  -13.9260   20.4330 C.ar   75  TYR75       0.0417
     20  CE2       23.2780  -15.5860   19.2850 C.ar   75  TYR75       0.0417
     21  CZ        23.9000  -15.1250   20.4520 C.ar   75  TYR75       0.1957
     22  OH        23.8040  -15.8430   21.6020 O.3    75  TYR75      -0.2866
     23  N         25.3290  -17.3350   15.7850 N.3    78  TRP78      -0.1241
     24  CA        24.3080  -17.6910   14.7690 C.3    78  TRP78       0.1605
     25  C         24.7350  -17.3230   13.3390 C.2    78  TRP78       0.2264
     26  O         23.9130  -17.3540   12.4040 O.2    78  TRP78      -0.2867
     27  CB        23.0020  -16.9820   15.0870 C.3    78  TRP78       0.0550
     28  CG        22.2890  -17.6150   16.2730 C.ar   78  TRP78       0.0003
     29  CD1       22.5390  -18.8160   16.8120 C.ar   78  TRP78       0.0946
     30  CD2       21.2390  -17.0170   17.0010 C.ar   78  TRP78       0.0152
     31  NE1       21.6180  -18.9890   17.8920 N.ar   78  TRP78      -0.2442
     32  CE2       20.8600  -17.9230   17.9810 C.ar   78  TRP78       0.0810
     33  CE3       20.5710  -15.7930   16.9050 C.ar   78  TRP78       0.0012
     34  CZ2       19.8200  -17.6810   18.8820 C.ar   78  TRP78       0.0191
     35  CZ3       19.5270  -15.5550   17.8200 C.ar   78  TRP78       0.0001
     36  CH2       19.1690  -16.4570   18.7600 C.ar   78  TRP78       0.0015
     37  N         25.5830  -14.5250   12.3730 N.3    80  LYS80      -0.1245
     38  CA        25.0460  -13.1860   12.1090 C.3    80  LYS80       0.1561
     39  C         26.1520  -12.1530   12.3140 C.2    80  LYS80       0.2260
     40  O         26.8510  -12.1660   13.3380 O.2    80  LYS80      -0.2867
     41  CB        23.8810  -12.8690   13.0520 C.3    80  LYS80       0.0271
     42  CG        23.2730  -11.4860   12.7920 C.3    80  LYS80       0.0035
     43  CD        22.2890  -11.0460   13.8770 C.3    80  LYS80       0.0206
     44  CE        21.1550  -12.0490   14.0930 C.3    80  LYS80       0.1093
     45  NZ        20.2780  -11.6900   15.2160 N.3    80  LYS80      -0.1314
     46  N         28.2500  -10.4480   23.4050 N.3   120  TRP120     -0.1241
     47  CA        27.5030  -11.4870   22.6840 C.3   120  TRP120      0.1605
     48  C         27.8320  -12.9010   23.1530 C.2   120  TRP120      0.2264
     49  O         27.0280  -13.7980   22.8350 O.2   120  TRP120     -0.2867
     50  CB        27.7040  -11.3890   21.1830 C.3   120  TRP120      0.0550
     51  CG        29.0560  -11.3800   20.6360 C.ar  120  TRP120      0.0003
     52  CD1       29.8020  -10.2900   20.3010 C.ar  120  TRP120      0.0946
     53  CD2       29.8370  -12.5130   20.2620 C.ar  120  TRP120      0.0152
     54  NE1       31.0460  -10.6560   19.7880 N.ar  120  TRP120     -0.2442
     55  CE2       31.0760  -12.0330   19.7610 C.ar  120  TRP120      0.0810
     56  CE3       29.6280  -13.8830   20.3160 C.ar  120  TRP120      0.0012
     57  CZ2       32.0470  -12.8860   19.2430 C.ar  120  TRP120      0.0191
     58  CZ3       30.6380  -14.7490   19.9100 C.ar  120  TRP120      0.0001
     59  CH2       31.8100  -14.2570   19.3550 C.ar  120  TRP120      0.0015
     60  N         28.1200  -13.8850   26.4280 N.3   122  GLU122     -0.1182
     61  CA        27.5320  -14.3620   27.6850 C.3   122  GLU122      0.1915
     62  C         26.0680  -14.0400   27.9010 C.2   122  GLU122      0.2634
     63  O         25.3160  -14.9780   28.2810 O.2   122  GLU122     -0.2714
     64  CB        28.3000  -13.8350   28.9170 C.2   122  GLU122      0.0085
     65  CG        27.9570  -14.4930   30.2680 C.2   122  GLU122      0.0835
     66  CD        28.5590  -13.8690   31.5100 C.2   122  GLU122      0.3877
     67  OE1       29.4180  -12.9840   31.3760 O.co2 122  GLU122     -0.2406
     68  OE2       28.1530  -14.4000   32.5960 O.co2 122  GLU122     -0.2406
     69  N         25.7230  -12.7440   27.8240 N.am  123  ASN123     -0.1958
     70  CA        24.3610  -12.3410   28.2130 C.3   123  ASN123      0.1819
     71  C         23.7500  -11.1820   27.4500 C.2   123  ASN123      0.2621
     72  O         22.6360  -10.7250   27.7890 O.2   123  ASN123     -0.2715
     73  CB        24.3970  -12.1530   29.7550 C.3   123  ASN123      0.1195
     74  CG        25.3550  -11.0800   30.1940 C.2   123  ASN123      0.2630
     75  OD1       26.1450  -10.5570   29.3750 O.2   123  ASN123     -0.2716
     76  ND2       25.2820  -10.7280   31.4830 N.am  123  ASN123     -0.0877
     77  N         24.4240  -10.7260   26.3910 N.am  124  LEU124     -0.1977
     78  CA        23.9220   -9.6270   25.5720 C.3   124  LEU124      0.1596
     79  C         24.0110   -8.3000   26.3460 C.2   124  LEU124      0.2287
     80  O         23.1820   -7.4050   26.1040 O.2   124  LEU124     -0.2864
     81  CB        22.4740   -9.9220   25.1590 C.3   124  LEU124      0.0297
     82  CG        22.2550  -10.6600   23.8770 C.3   124  LEU124      0.0022
     83  CD1       20.9430  -10.2320   23.2160 C.3   124  LEU124      0.0001
     84  CD2       23.4500  -10.4050   22.9550 C.3   124  LEU124      0.0001
     85  N         20.5240  -16.6900   33.5670 N.3   200  ILE200     -0.1245
     86  CA        21.4510  -15.6990   33.0030 C.3   200  ILE200      0.1561
     87  C         21.7220  -14.6050   34.0470 C.2   200  ILE200      0.2260
     88  O         20.8650  -14.2980   34.8900 O.2   200  ILE200     -0.2867
     89  CB        20.8530  -15.1150   31.7170 C.3   200  ILE200      0.0252
     90  CG1       20.2670  -16.1930   30.7960 C.3   200  ILE200      0.0019
     91  CG2       21.8740  -14.3640   30.8570 C.3   200  ILE200      0.0019
     92  CD1       21.1360  -16.4590   29.5630 C.3   200  ILE200      0.0001
     93  N          3.9670   -9.7770   25.5370 N.3   220  ASP220     -0.1225
     94  CA         5.4010   -9.8500   25.3300 C.3   220  ASP220      0.1805
     95  C          5.7390   -9.4970   23.8860 C.2   220  ASP220      0.2598
     96  O          4.8550   -9.4350   23.0110 O.2   220  ASP220     -0.2718
     97  CB         5.8910  -11.2790   25.6430 C.3   220  ASP220      0.1424
     98  CG         7.3720  -11.3440   26.0080 C.2   220  ASP220      0.3668
     99  OD1        7.9320  -12.4840   26.2150 O.co2 220  ASP220     -0.2456
    100  OD2        8.0480  -10.2560   26.1010 O.co2 220  ASP220     -0.2456
    101  N          7.0070   -9.2280   23.7030 N.am  221  ALA221     -0.1966
    102  CA         7.5720   -9.0270   22.3890 C.3   221  ALA221      0.1728
    103  C          7.8310  -10.4460   21.8990 C.2   221  ALA221      0.2616
    104  O          7.6330  -11.4120   22.6860 O.2   221  ALA221     -0.2715
    105  CB         8.8730   -8.2250   22.4790 C.3   221  ALA221      0.0334
    106  N          8.3190  -10.6960   20.7740 N.am  222  CYS222     -0.1954
    107  CA         8.6360  -12.0360   20.2790 C.3   222  CYS222      0.1843
    108  C          9.5710  -11.8380   19.0970 C.2   222  CYS222      0.2625
    109  O         10.2220  -10.7870   18.8980 O.2   222  CYS222     -0.2714
    110  CB         7.3830  -12.8390   20.0210 C.3   222  CYS222      0.0997
    111  SG         7.5870  -14.6490   19.7930 S.3   222  CYS222     -0.0797
    112  N          9.7210  -12.9380   18.4020 N.am  223  GLU223     -0.1963
    113  CA        10.5810  -13.0900   17.2100 C.3   223  GLU223      0.1733
    114  C         10.3360  -12.0100   16.1870 C.2   223  GLU223      0.2616
    115  O          9.2120  -11.9660   15.6230 O.2   223  GLU223     -0.2715
    116  CB        10.2090  -14.4190   16.5150 C.3   223  GLU223      0.0429
    117  CG        11.2280  -15.5220   16.4960 C.3   223  GLU223      0.1163
    118  CD        12.0930  -15.5710   15.2620 C.2   223  GLU223      0.3649
    119  OE1       12.2030  -16.5980   14.5900 O.co2 223  GLU223     -0.2457
    120  OE2       12.6420  -14.4860   14.9580 O.co2 223  GLU223     -0.2457
    121  N         11.3540  -11.2420   15.8860 N.am  224  GLY224     -0.1955
    122  CA        11.2340  -10.2100   14.8400 C.3   224  GLY224      0.1869
    123  C         11.0310   -8.8250   15.4060 C.2   224  GLY224      0.2309
    124  O         11.2810   -7.8530   14.6660 O.2   224  GLY224     -0.2863
    125  N         12.8280   -7.6140   17.9060 N.3   226  SER226     -0.1217
    126  CA        14.1260   -7.1590   18.4070 C.3   226  SER226      0.1889
    127  C         14.4100   -5.7210   17.9830 C.2   226  SER226      0.2288
    128  O         14.0450   -5.2850   16.8780 O.2   226  SER226     -0.2866
    129  CB        15.2840   -7.9920   17.8610 C.3   226  SER226      0.2089
    130  OG        15.3240   -9.3300   18.2590 O.3   226  SER226     -0.2183
    131  N         14.3440   -3.8560   22.9970 N.3   246  VAL246     -0.1231
    132  CA        14.0030   -5.2950   23.0450 C.3   246  VAL246      0.1692
    133  C         15.3080   -6.0580   22.8360 C.2   246  VAL246      0.2593
    134  O         15.8660   -5.9960   21.7490 O.2   246  VAL246     -0.2718
    135  CB        12.9070   -5.6790   22.0440 C.3   246  VAL246      0.0266
    136  CG1       12.3570   -7.1180   22.1840 C.3   246  VAL246      0.0020
    137  CG2       11.7320   -4.7250   22.0540 C.3   246  VAL246      0.0020
    138  N         15.7720   -6.7020   23.8950 N.am  247  SER247     -0.1938
    139  CA        17.0220   -7.4270   23.8480 C.3   247  SER247      0.2055
    140  C         16.8560   -8.9380   23.6990 C.2   247  SER247      0.2643
    141  O         17.2000   -9.6000   22.6980 O.2   247  SER247     -0.2714
    142  CB        17.8850   -7.1420   25.0840 C.3   247  SER247      0.2130
    143  OG        19.2580   -7.3660   24.7050 O.3   247  SER247     -0.2179
    144  N         16.4020   -9.4890   24.8220 N.am  248  TRP248     -0.1959
    145  CA        16.3270  -10.9810   24.9080 C.3   248  TRP248      0.1771
    146  C         15.2040  -11.4260   25.7900 C.2   248  TRP248      0.2620
    147  O         14.5880  -10.7230   26.6010 O.2   248  TRP248     -0.2715
    148  CB        17.6840  -11.4440   25.3700 C.3   248  TRP248      0.0590
    149  CG        18.1370  -11.1020   26.7420 C.ar  248  TRP248      0.0006
    150  CD1       19.0050  -10.0990   27.0990 C.ar  248  TRP248      0.0946
    151  CD2       17.9610  -11.8670   27.9360 C.ar  248  TRP248      0.0152
    152  NE1       19.3610  -10.1500   28.4180 N.ar  248  TRP248     -0.2442
    153  CE2       18.7240  -11.2390   28.9520 C.ar  248  TRP248      0.0810
    154  CE3       17.2130  -12.9800   28.2450 C.ar  248  TRP248      0.0012
    155  CZ2       18.6950  -11.6740   30.2830 C.ar  248  TRP248      0.0191
    156  CZ3       17.2200  -13.4340   29.5560 C.ar  248  TRP248      0.0001
    157  CH2       17.9600  -12.8100   30.5630 C.ar  248  TRP248      0.0015
    158  N         14.8190  -12.6580   25.5030 N.am  249  GLY249     -0.1940
    159  CA        13.7880  -13.3580   26.2960 C.3   249  GLY249      0.2014
    160  C         13.9580  -14.8620   26.1010 C.2   249  GLY249      0.2639
    161  O         14.6440  -15.3010   25.1940 O.2   249  GLY249     -0.2714
    162  N         13.2360  -15.5680   26.9400 N.am  250  GLU250     -0.1963
    163  CA        13.1070  -17.0220   27.0280 C.3   250  GLU250      0.1733
    164  C         11.7030  -17.4720   26.6670 C.2   250  GLU250      0.2617
    165  O         10.7860  -17.6420   27.5070 O.2   250  GLU250     -0.2715
    166  CB        13.3570  -17.4410   28.4870 C.3   250  GLU250      0.0429
    167  CG        14.8850  -17.5370   28.8030 C.3   250  GLU250      0.1163
    168  CD        15.1410  -18.1480   30.1690 C.2   250  GLU250      0.3649
    169  OE1       15.0390  -17.4660   31.1940 O.co2 250  GLU250     -0.2457
    170  OE2       15.4020  -19.3770   30.1150 O.co2 250  GLU250     -0.2457
    171  N         11.5690  -17.5990   25.3370 N.am  251  GLY251     -0.1940
    172  CA        10.2530  -17.9460   24.7650 C.3   251  GLY251      0.2014
    173  C          9.5850  -16.6600   24.3240 C.2   251  GLY251      0.2639
    174  O         10.2720  -15.7480   23.8980 O.2   251  GLY251     -0.2714
    175  N          8.2980  -16.5940   24.4300 N.am  252  CYS252     -0.1967
    176  CA         7.4220  -15.4720   24.1150 C.3   252  CYS252      0.1712
    177  C          6.1380  -15.5620   24.9500 C.2   252  CYS252      0.2296
    178  O          5.2040  -16.3360   24.6000 O.2   252  CYS252     -0.2864
    179  CB         7.0490  -15.4710   22.6390 C.3   252  CYS252      0.0983
    180  SG         8.4310  -15.2260   21.5460 S.3   252  CYS252     -0.0798
    181  N          9.5710  -13.1250   31.7850 N.3   258  TYR258     -0.1227
    182  CA         9.6390  -11.7220   31.4490 C.3   258  TYR258      0.1736
    183  C         10.5800  -11.3050   30.3260 C.2   258  TYR258      0.2596
    184  O         11.5600  -11.9920   29.9280 O.2   258  TYR258     -0.2718
    185  CB        10.0040  -10.9050   32.7380 C.3   258  TYR258      0.0548
    186  CG         9.2090  -11.3610   33.9310 C.ar  258  TYR258     -0.0200
    187  CD1        9.6760  -12.4110   34.7450 C.ar  258  TYR258     -0.0009
    188  CD2        8.0010  -10.7500   34.2710 C.ar  258  TYR258     -0.0009
    189  CE1        8.9580  -12.8610   35.8360 C.ar  258  TYR258      0.0417
    190  CE2        7.2290  -11.2230   35.3300 C.ar  258  TYR258      0.0417
    191  CZ         7.6990  -12.3050   36.0780 C.ar  258  TYR258      0.1957
    192  OH         6.9110  -12.7190   37.1360 O.3   258  TYR258     -0.2866
    193  N         10.3720  -10.0670   29.8280 N.am  259  GLY259     -0.1942
    194  CA        11.1980   -9.5100   28.7600 C.3   259  GLY259      0.2014
    195  C         12.3820   -8.7400   29.2790 C.2   259  GLY259      0.2638
    196  O         12.1920   -7.9910   30.2570 O.2   259  GLY259     -0.2714
    197  N         13.5690   -8.9010   28.7090 N.am  260  PHE260     -0.1973
    198  CA        14.7750   -8.1360   29.0770 C.3   260  PHE260      0.1639
    199  C         15.0680   -7.1600   27.9100 C.2   260  PHE260      0.2290
    200  O         14.9690   -7.5400   26.7380 O.2   260  PHE260     -0.2864
    201  CB        16.0250   -8.9310   29.4620 C.3   260  PHE260      0.0560
    202  CG        15.8120   -9.6750   30.7650 C.ar  260  PHE260     -0.0200
    203  CD1       15.0520  -10.8570   30.7670 C.ar  260  PHE260     -0.0042
    204  CD2       16.2520   -9.1210   31.9710 C.ar  260  PHE260     -0.0042
    205  CE1       14.7440  -11.5020   31.9470 C.ar  260  PHE260     -0.0003
    206  CE2       15.9600   -9.7720   33.1720 C.ar  260  PHE260     -0.0003
    207  CZ        15.2590  -11.0010   33.1440 C.ar  260  PHE260     -0.0000
@<TRIPOS>BOND
     1    38    39    1
     2    38    37    1
     3    38    41    1
     4    39    40    2
     5    26    25    2
     6    42    41    1
     7    42    43    1
     8    25    24    1
     9    43    44    1
    10    44    45    1
    11   119   118   ar
    12   124   123    2
    13    24    27    1
    14    24    23    1
    15   122   123    1
    16   122   121    1
    17   120   118   ar
    18    27    28    1
    19    14    13    2
    20   118   117    1
    21    11    12    1
    22   115   114    2
    23   121   114   am
    24    13    12    1
    25   114   113    1
    26    28    29   ar
    27    28    30   ar
    28     4     3    2
    29   117   116    1
    30   116   113    1
    31    12    15    1
    32    15    16    1
    33    29    31   ar
    34     3     2    1
    35   128   127    2
    36    33    30   ar
    37    33    35   ar
    38    30    32   ar
    39   113   112    1
    40    35    36   ar
    41   129   130    1
    42   129   126    1
    43    31    32   ar
    44   125   126    1
    45    32    34   ar
    46   127   126    1
    47    16    18   ar
    48    16    17   ar
    49    18    20   ar
    50     2     1    1
    51     2     5    1
    52   112   108   am
    53     8    10   ar
    54     8     6   ar
    55    36    34   ar
    56   109   108    2
    57   108   107    1
    58    10     9   ar
    59     5     6    1
    60    57    59   ar
    61    57    55   ar
    62    17    19   ar
    63    20    21   ar
    64     6     7   ar
    65    59    58   ar
    66    55    54   ar
    67    55    53   ar
    68    54    52   ar
    69   111   110    1
    70   111   180    1
    71    58    56   ar
    72   110   107    1
    73     9     7   ar
    74    53    56   ar
    75    53    51   ar
    76   107   106    1
    77    52    51   ar
    78    19    21   ar
    79    21    22    1
    80    51    50    1
    81   106   103   am
    82    50    47    1
    83   180   179    1
    84   134   133    2
    85   103   102    1
    86   103   104    2
    87   135   137    1
    88   135   136    1
    89   135   132    1
    90   102   105    1
    91   102   101    1
    92   179   176    1
    93    47    48    1
    94    47    46    1
    95   141   140    2
    96    49    48    2
    97   133   132    1
    98   133   138   am
    99    84    82    1
   100   131   132    1
   101    96    95    2
   102    83    82    1
   103   140   139    1
   104   140   144   am
   105   101    95   am
   106   139   138    1
   107   139   142    1
   108    82    81    1
   109    95    94    1
   110   174   173    2
   111   176   175    1
   112   176   177    1
   113   173   175   am
   114   173   172    1
   115   178   177    2
   116   143   142    1
   117   172   171    1
   118   144   145    1
   119   145   148    1
   120   145   146    1
   121    81    78    1
   122   161   160    2
   123    94    93    1
   124    94    97    1
   125   171   164   am
   126   148   149    1
   127   158   146   am
   128   158   159    1
   129    78    79    1
   130    78    77    1
   131    97    98    1
   132   146   147    2
   133    98   100   ar
   134    98    99   ar
   135   160   159    1
   136   160   162   am
   137    80    79    2
   138    77    71   am
   139    60    61    1
   140   164   163    1
   141   164   165    2
   142   200   199    2
   143   149   150   ar
   144   149   151   ar
   145   162   163    1
   146   163   166    1
   147   150   152   ar
   148    71    72    2
   149    71    70    1
   150    61    62    1
   151    61    64    1
   152    69    62   am
   153    69    70    1
   154    62    63    2
   155   199   198    1
   156   151   154   ar
   157   151   153   ar
   158    70    73    1
   159   154   156   ar
   160   152   153   ar
   161   166   167    1
   162   197   198    1
   163   197   195   am
   164   194   195    1
   165   194   193    1
   166   167   168    1
   167    64    65    2
   168   153   155   ar
   169   198   201    1
   170   195   196    2
   171    75    74    2
   172   201   202    1
   173   156   157   ar
   174    92    90    1
   175    73    74    1
   176   193   183   am
   177   184   183    2
   178   170   168   ar
   179   168   169   ar
   180    74    76   am
   181    65    66    1
   182   155   157   ar
   183   183   182    1
   184   202   203   ar
   185   202   204   ar
   186   203   205   ar
   187    90    89    1
   188    91    89    1
   189    67    66   ar
   190   182   181    1
   191   182   185    1
   192    66    68   ar
   193    89    86    1
   194   205   207   ar
   195   204   206   ar
   196   185   186    1
   197    86    85    1
   198    86    87    1
   199   207   206   ar
   200   186   188   ar
   201   186   187   ar
   202    87    88    2
   203   188   190   ar
   204   187   189   ar
   205   190   191   ar
   206   189   191   ar
   207   191   192    1
