@<TRIPOS>MOLECULE
tmp/1d9zA00.pdb
 162 153 0 0 0
SMALL
GASTEIGER

@<TRIPOS>ATOM
      1  N         36.3030   46.1810   51.8880 N.3    10  TYR10      -0.1227
      2  CA        36.3560   47.4310   52.6320 C.3    10  TYR10       0.1736
      3  C         37.1350   48.5240   51.9250 C.2    10  TYR10       0.2595
      4  O         37.1460   48.6330   50.7130 O.2    10  TYR10      -0.2718
      5  CB        36.9490   47.2470   54.0210 C.3    10  TYR10       0.0548
      6  CG        37.5660   45.9160   54.3490 C.ar   10  TYR10      -0.0200
      7  CD1       38.9430   45.7130   54.2750 C.ar   10  TYR10      -0.0009
      8  CD2       36.7710   44.8470   54.7850 C.ar   10  TYR10      -0.0009
      9  CE1       39.5070   44.4940   54.6200 C.ar   10  TYR10       0.0417
     10  CE2       37.3300   43.6240   55.1230 C.ar   10  TYR10       0.0417
     11  CZ        38.6990   43.4500   55.0400 C.ar   10  TYR10       0.1957
     12  OH        39.2440   42.2300   55.3790 O.3    10  TYR10      -0.2866
     13  N         37.7240   49.3850   52.7280 N.am   11  GLU11      -0.1979
     14  CA        38.5240   50.5320   52.3010 C.3    11  GLU11       0.1602
     15  C         39.3920   50.9170   53.4860 C.2    11  GLU11       0.2287
     16  O         39.0560   50.5650   54.6240 O.2    11  GLU11      -0.2864
     17  CB        37.6310   51.7290   51.9810 C.3    11  GLU11       0.0415
     18  CG        37.1730   51.8480   50.5370 C.3    11  GLU11       0.1163
     19  CD        38.1620   52.6140   49.6830 C.2    11  GLU11       0.3649
     20  OE1       38.5050   52.1370   48.5820 O.co2  11  GLU11      -0.2457
     21  OE2       38.5640   53.7050   50.1290 O.co2  11  GLU11      -0.2457
     22  N         40.2820   52.1980   56.5760 N.3    13  GLN13      -0.1245
     23  CA        39.5680   52.9070   57.6300 C.3    13  GLN13       0.1566
     24  C         40.5840   53.4640   58.6150 C.2    13  GLN13       0.2260
     25  O         41.6180   53.9520   58.1620 O.2    13  GLN13      -0.2867
     26  CB        38.5580   51.9870   58.3070 C.3    13  GLN13       0.0367
     27  CG        37.3930   51.6180   57.3890 C.3    13  GLN13       0.0905
     28  CD        36.1840   51.0320   58.0970 C.2    13  GLN13       0.2608
     29  OE1       35.7960   49.8710   57.8930 O.2    13  GLN13      -0.2717
     30  NE2       35.5660   51.8610   58.9550 N.am   13  GLN13      -0.0878
     31  N         44.8650   53.9440   58.8190 N.3    16  GLN16      -0.1245
     32  CA        45.5600   53.1260   57.8460 C.3    16  GLN16       0.1566
     33  C         46.3130   53.9350   56.7900 C.2    16  GLN16       0.2260
     34  O         47.5230   53.7470   56.5530 O.2    16  GLN16      -0.2867
     35  CB        44.5430   52.1510   57.2210 C.3    16  GLN16       0.0367
     36  CG        44.1990   51.0260   58.1710 C.3    16  GLN16       0.0905
     37  CD        43.1310   50.1420   57.5980 C.2    16  GLN16       0.2608
     38  OE1       42.4730   50.5300   56.6330 O.2    16  GLN16      -0.2717
     39  NE2       42.9130   48.9700   58.1440 N.am   16  GLN16      -0.0878
     40  N         48.2800   48.3120   66.5690 N.3    39  ALA39      -0.1231
     41  CA        47.6280   47.7060   67.7090 C.3    39  ALA39       0.1694
     42  C         46.9000   46.4460   67.2740 C.2    39  ALA39       0.2593
     43  O         46.5950   46.3480   66.0900 O.2    39  ALA39      -0.2718
     44  CB        46.6990   48.6530   68.4360 C.3    39  ALA39       0.0304
     45  N         46.4500   45.6880   68.2560 N.am   40  THR40      -0.1939
     46  CA        45.8020   44.4340   67.9010 C.3    40  THR40       0.2028
     47  C         44.5000   44.7840   67.2220 C.2    40  THR40       0.2643
     48  O         44.0580   45.8720   67.4350 O.2    40  THR40      -0.2714
     49  CB        45.5230   43.5650   69.1310 C.3    40  THR40       0.1808
     50  OG1       44.1850   43.0360   69.0930 O.3    40  THR40      -0.2208
     51  CG2       45.7730   44.3460   70.4030 C.3    40  THR40       0.0379
     52  N         43.9780   43.9000   66.4010 N.am   41  GLY41      -0.1939
     53  CA        42.7370   44.0690   65.7030 C.3    41  GLY41       0.2014
     54  C         42.5140   45.3800   64.9820 C.2    41  GLY41       0.2640
     55  O         41.3360   45.7230   64.7800 O.2    41  GLY41      -0.2714
     56  N         43.5680   46.0870   64.5620 N.am   42  THR42      -0.1936
     57  CA        43.4710   47.3330   63.8380 C.3    42  THR42       0.2028
     58  C         43.6570   47.1070   62.3430 C.2    42  THR42       0.2643
     59  O         43.6310   48.0680   61.5840 O.2    42  THR42      -0.2714
     60  CB        44.4880   48.4180   64.2390 C.3    42  THR42       0.1808
     61  OG1       45.7100   48.3050   63.5140 O.3    42  THR42      -0.2208
     62  CG2       44.7930   48.4520   65.7080 C.3    42  THR42       0.0379
     63  N         43.8350   45.8610   61.9620 N.am   43  GLY43      -0.1939
     64  CA        44.0000   45.5250   60.5560 C.3    43  GLY43       0.2014
     65  C         45.3830   45.8570   60.0150 C.2    43  GLY43       0.2639
     66  O         45.6100   46.9080   59.4220 O.2    43  GLY43      -0.2714
     67  N         46.3410   44.9650   60.2160 N.am   44  LYS44      -0.1963
     68  CA        47.7020   45.1460   59.7450 C.3    44  LYS44       0.1728
     69  C         47.8730   44.3980   58.4230 C.2    44  LYS44       0.2617
     70  O         48.1700   44.9540   57.3590 O.2    44  LYS44      -0.2715
     71  CB        48.7690   44.6210   60.6900 C.3    44  LYS44       0.0311
     72  CG        48.7370   45.1140   62.1110 C.3    44  LYS44       0.0038
     73  CD        49.7900   44.4820   62.9940 C.3    44  LYS44       0.0206
     74  CE        49.2160   43.8920   64.2680 C.3    44  LYS44       0.1093
     75  NZ        50.1990   44.0220   65.3740 N.3    44  LYS44      -0.1314
     76  N         47.5000   43.1120   58.4730 N.am   45  THR45      -0.1937
     77  CA        47.5410   42.2440   57.3070 C.3    45  THR45       0.2028
     78  C         47.0640   42.9540   56.0510 C.2    45  THR45       0.2642
     79  O         47.6030   42.7940   54.9680 O.2    45  THR45      -0.2714
     80  CB        46.6690   41.0050   57.5550 C.3    45  THR45       0.1808
     81  OG1       47.1520   40.2960   58.7050 O.3    45  THR45      -0.2208
     82  CG2       46.7170   40.0870   56.3590 C.3    45  THR45       0.0379
     83  N         46.0110   43.7510   56.1530 N.am   46  PHE46      -0.1973
     84  CA        45.4560   44.4910   55.0500 C.3    46  PHE46       0.1639
     85  C         46.2740   45.7190   54.7110 C.2    46  PHE46       0.2290
     86  O         46.6980   45.9040   53.5850 O.2    46  PHE46      -0.2864
     87  CB        44.0040   44.9100   55.3570 C.3    46  PHE46       0.0560
     88  CG        43.3780   45.7820   54.2900 C.ar   46  PHE46      -0.0200
     89  CD1       42.6060   45.2200   53.2900 C.ar   46  PHE46      -0.0042
     90  CD2       43.5810   47.1570   54.2500 C.ar   46  PHE46      -0.0042
     91  CE1       42.0720   45.9980   52.2850 C.ar   46  PHE46      -0.0003
     92  CE2       43.0420   47.9450   53.2590 C.ar   46  PHE46      -0.0003
     93  CZ        42.2960   47.3630   52.2660 C.ar   46  PHE46      -0.0000
     94  N         44.5400   34.4440   53.7490 N.3    75  GLU75      -0.1245
     95  CA        44.3100   35.8750   53.7900 C.3    75  GLU75       0.1567
     96  C         44.8230   36.5860   52.5410 C.2    75  GLU75       0.2260
     97  O         44.0690   37.0650   51.6810 O.2    75  GLU75      -0.2867
     98  CB        44.9590   36.4910   55.0210 C.3    75  GLU75       0.0388
     99  CG        44.0800   36.5540   56.2490 C.3    75  GLU75       0.1160
    100  CD        44.2690   37.8240   57.0690 C.2    75  GLU75       0.3649
    101  OE1       44.9790   37.7650   58.1070 O.co2  75  GLU75      -0.2457
    102  OE2       43.6850   38.8610   56.6430 O.co2  75  GLU75      -0.2457
    103  N         54.7350   39.5740   63.4710 N.3   334  GLU334     -0.1245
    104  CA        55.0190   39.4230   64.8810 C.3   334  GLU334      0.1567
    105  C         56.5070   39.5390   65.1450 C.2   334  GLU334      0.2260
    106  O         57.1000   38.8050   65.9400 O.2   334  GLU334     -0.2867
    107  CB        54.4870   38.0490   65.3110 C.3   334  GLU334      0.0388
    108  CG        52.9840   37.8950   65.2800 C.3   334  GLU334      0.1160
    109  CD        52.1750   38.6830   66.2870 C.2   334  GLU334      0.3649
    110  OE1       51.2210   39.3880   65.8720 O.co2 334  GLU334     -0.2457
    111  OE2       52.4350   38.6430   67.5090 O.co2 334  GLU334     -0.2457
    112  N         52.8270   45.0070   67.4030 N.3   389  ALA389     -0.1245
    113  CA        52.3000   45.8650   68.4350 C.3   389  ALA389      0.1562
    114  C         53.3090   46.1030   69.5450 C.2   389  ALA389      0.2260
    115  O         53.2940   47.1170   70.2470 O.2   389  ALA389     -0.2867
    116  CB        51.1420   45.0760   69.0540 C.3   389  ALA389      0.0290
    117  N         38.8230   49.9080   63.1220 N.3   409  PRO409     -0.2116
    118  CA        37.7090   50.2950   62.2830 C.3   409  PRO409      0.1372
    119  C         36.3950   50.4170   63.0300 C.2   409  PRO409      0.2244
    120  O         35.5510   51.2700   62.7140 O.2   409  PRO409     -0.2868
    121  CB        37.5520   49.1930   61.2250 C.3   409  PRO409      0.0268
    122  CG        38.2810   48.0460   61.8430 C.3   409  PRO409      0.0207
    123  CD        39.4190   48.6480   62.6610 C.3   409  PRO409      0.0892
    124  N         41.1680   35.4720   71.1640 N.3   505  ASP505     -0.1239
    125  CA        40.7680   36.7890   70.6960 C.3   505  ASP505      0.1674
    126  C         39.2440   36.7760   70.7670 C.2   505  ASP505      0.2266
    127  O         38.6240   36.7890   69.7150 O.2   505  ASP505     -0.2867
    128  CB        41.2390   37.0210   69.2620 C.3   505  ASP505      0.1410
    129  CG        42.3720   38.0180   69.1600 C.2   505  ASP505      0.3668
    130  OD1       42.5150   38.8180   70.1240 O.co2 505  ASP505     -0.2456
    131  OD2       43.0850   37.9800   68.1270 O.co2 505  ASP505     -0.2456
    132  N         43.6940   41.5770   75.0610 N.3   535  ARG535     -0.1245
    133  CA        42.6850   40.5500   75.0880 C.3   535  ARG535      0.1563
    134  C         41.4210   41.1290   75.6870 C.2   535  ARG535      0.2260
    135  O         40.4020   40.4690   75.7900 O.2   535  ARG535     -0.2867
    136  CB        43.1870   39.3510   75.8800 C.3   535  ARG535      0.0307
    137  CG        44.4650   38.7560   75.3390 C.3   535  ARG535      0.0489
    138  CD        44.4200   38.5510   73.8350 C.3   535  ARG535      0.2205
    139  NE        44.8810   37.2240   73.4280 N.pl3 535  ARG535     -0.0865
    140  CZ        45.6150   36.9900   72.3380 C.cat 535  ARG535      0.5346
    141  NH1       45.9810   38.0150   71.5600 N.pl3 535  ARG535      0.1354
    142  NH2       45.9870   35.7600   71.9890 N.pl3 535  ARG535      0.1354
    143  N         38.3600   43.6460   72.8250 N.3   538  ARG538     -0.1245
    144  CA        37.4490   43.1130   71.8090 C.3   538  ARG538      0.1563
    145  C         36.0290   43.4960   72.2280 C.2   538  ARG538      0.2260
    146  O         35.0620   43.0290   71.6570 O.2   538  ARG538     -0.2867
    147  CB        37.5780   41.5980   71.7470 C.3   538  ARG538      0.0307
    148  CG        38.5410   41.1050   70.7000 C.3   538  ARG538      0.0489
    149  CD        38.2340   41.6410   69.3150 C.3   538  ARG538      0.2205
    150  NE        38.6590   40.7310   68.2520 N.pl3 538  ARG538     -0.0865
    151  CZ        39.8700   40.7210   67.7080 C.cat 538  ARG538      0.5346
    152  NH1       40.8140   41.5780   68.0930 N.pl3 538  ARG538      0.1354
    153  NH2       40.1130   39.8260   66.7600 N.pl3 538  ARG538      0.1354
    154  N         31.1260   37.9280   66.0050 N.3   585  LYS585     -0.1245
    155  CA        31.7200   36.8310   65.2530 C.3   585  LYS585      0.1561
    156  C         30.7510   35.6500   65.3550 C.2   585  LYS585      0.2260
    157  O         29.9810   35.5980   66.3290 O.2   585  LYS585     -0.2867
    158  CB        33.0870   36.4430   65.8050 C.3   585  LYS585      0.0271
    159  CG        34.2990   36.9240   65.0290 C.3   585  LYS585      0.0035
    160  CD        35.6020   36.2940   65.5170 C.3   585  LYS585      0.0206
    161  CE        36.8190   37.1400   65.1610 C.3   585  LYS585      0.1093
    162  NZ        38.0690   36.7700   65.8960 N.3   585  LYS585     -0.1314
@<TRIPOS>BOND
     1    20    19   ar
     2    19    21   ar
     3    19    18    1
     4    18    17    1
     5     4     3    2
     6    97    96    2
     7     1     2    1
     8     3     2    1
     9     3    13   am
    10    17    14    1
    11    93    91   ar
    12    93    92   ar
    13    91    89   ar
    14    14    13    1
    15    14    15    1
    16    96    95    1
    17     2     5    1
    18    92    90   ar
    19    89    88   ar
    20    15    16    2
    21    86    85    2
    22    94    95    1
    23    95    98    1
    24     5     6    1
    25    90    88   ar
    26     7     6   ar
    27     7     9   ar
    28    88    87    1
    29     6     8   ar
    30     9    11   ar
    31    85    84    1
    32     8    10   ar
    33    79    78    2
    34    98    99    1
    35    11    10   ar
    36    11    12    1
    37    84    87    1
    38    84    83    1
    39    78    83   am
    40    78    77    1
    41    99   100    1
    42    82    80    1
    43    34    33    2
    44    22    23    1
    45    38    37    2
    46   102   100   ar
    47    33    32    1
    48   100   101   ar
    49    35    32    1
    50    35    36    1
    51    77    80    1
    52    77    76    1
    53    70    69    2
    54    27    28    1
    55    27    26    1
    56    80    81    1
    57    37    39   am
    58    37    36    1
    59    23    26    1
    60    23    24    1
    61    32    31    1
    62    29    28    2
    63    28    30   am
    64    25    24    2
    65    69    76   am
    66    69    68    1
    67    66    65    2
    68    68    67    1
    69    68    71    1
    70    65    67   am
    71    65    64    1
    72    64    63    1
    73    71    72    1
    74   121   122    1
    75   121   118    1
    76    59    58    2
    77   122   123    1
    78    63    58   am
    79    72    73    1
    80   118   119    1
    81   118   117    1
    82    58    57    1
    83   123   117    1
    84   120   119    2
    85    73    74    1
    86   103   104    1
    87    61    60    1
    88    57    60    1
    89    57    56    1
    90    60    62    1
    91    74    75    1
    92    56    54   am
    93    55    54    2
    94   104   105    1
    95   104   107    1
    96    54    53    1
    97   159   160    1
    98   159   158    1
    99   105   106    2
   100   161   160    1
   101   161   162    1
   102   155   156    1
   103   155   158    1
   104   155   154    1
   105   108   107    1
   106   108   109    1
   107   156   157    2
   108    53    52    1
   109   110   109   ar
   110    43    42    2
   111   109   111   ar
   112    52    47   am
   113    40    41    1
   114   153   151    1
   115    47    48    2
   116    47    46    1
   117    42    41    1
   118    42    45   am
   119   112   113    1
   120   151   152    1
   121   151   150    2
   122    41    44    1
   123    46    45    1
   124    46    49    1
   125   131   129   ar
   126   150   149    1
   127   113   116    1
   128   113   114    1
   129    50    49    1
   130    49    51    1
   131   129   128    1
   132   129   130   ar
   133   128   125    1
   134   149   148    1
   135   114   115    2
   136   127   126    2
   137   125   126    1
   138   125   124    1
   139   148   147    1
   140   141   140    1
   141   146   145    2
   142   147   144    1
   143   144   145    1
   144   144   143    1
   145   142   140    1
   146   140   139    2
   147   139   138    1
   148   138   137    1
   149   132   133    1
   150   133   134    1
   151   133   136    1
   152   137   136    1
   153   134   135    2
