@<TRIPOS>MOLECULE
tmp/1daaB00.pdb
 176 165 0 0 0
SMALL
GASTEIGER

@<TRIPOS>ATOM
      1  N         24.3060   -8.7890   51.9570 N.3    31  TYR31      -0.1241
      2  CA        23.5420   -8.8850   53.2010 C.3    31  TYR31       0.1605
      3  C         22.4630   -7.8470   53.2970 C.2    31  TYR31       0.2264
      4  O         22.3390   -6.9710   52.4410 O.2    31  TYR31      -0.2867
      5  CB        24.4730   -8.7590   54.4280 C.3    31  TYR31       0.0534
      6  CG        24.9730   -7.3730   54.7260 C.ar   31  TYR31      -0.0201
      7  CD1       25.9620   -6.8050   53.9260 C.ar   31  TYR31      -0.0009
      8  CD2       24.4000   -6.6410   55.7680 C.ar   31  TYR31      -0.0009
      9  CE1       26.3730   -5.4900   54.1520 C.ar   31  TYR31       0.0417
     10  CE2       24.8120   -5.3290   56.0090 C.ar   31  TYR31       0.0417
     11  CZ        25.7960   -4.7740   55.1900 C.ar   31  TYR31       0.1957
     12  OH        26.2090   -3.4870   55.4090 O.3    31  TYR31      -0.2866
     13  N         19.7100   -5.8750   56.6350 N.3    33  VAL33      -0.1245
     14  CA        19.2670   -5.7180   58.0230 C.3    33  VAL33       0.1561
     15  C         17.7930   -5.3110   57.9880 C.2    33  VAL33       0.2260
     16  O         17.4290   -4.4350   57.2160 O.2    33  VAL33      -0.2867
     17  CB        20.1010   -4.6380   58.7390 C.3    33  VAL33       0.0252
     18  CG1       19.6140   -4.4000   60.1790 C.3    33  VAL33       0.0019
     19  CG2       21.5530   -5.1490   58.8300 C.3    33  VAL33       0.0019
     20  N         13.4340   -5.3150   51.4780 N.3    47  HIS47      -0.1241
     21  CA        14.7670   -5.7970   51.8050 C.3    47  HIS47       0.1621
     22  C         15.0730   -7.1170   51.1250 C.2    47  HIS47       0.2264
     23  O         16.1620   -7.2440   50.5820 O.2    47  HIS47      -0.2867
     24  CB        14.9100   -5.9640   53.3060 C.3    47  HIS47       0.0745
     25  CG        15.1170   -4.6310   53.9980 C.ar   47  HIS47       0.0817
     26  ND1       14.2170   -3.8140   54.5110 N.ar   47  HIS47      -0.2268
     27  CD2       16.3360   -4.0320   54.1850 C.ar   47  HIS47       0.1154
     28  CE1       14.8390   -2.7610   54.9930 C.ar   47  HIS47       0.1986
     29  NE2       16.1230   -2.9000   54.7910 N.ar   47  HIS47      -0.2212
     30  N         15.9670   -6.3810   47.5130 N.3    50  ARG50      -0.1245
     31  CA        17.2970   -5.8230   47.3430 C.3    50  ARG50       0.1563
     32  C         18.3520   -6.9080   47.5970 C.2    50  ARG50       0.2260
     33  O         19.3580   -6.9040   46.8840 O.2    50  ARG50      -0.2867
     34  CB        17.4940   -4.6310   48.2950 C.3    50  ARG50       0.0307
     35  CG        18.7950   -3.8830   48.0150 C.3    50  ARG50       0.0489
     36  CD        18.9680   -2.6060   48.8210 C.3    50  ARG50       0.2205
     37  NE        19.0400   -2.8440   50.2540 N.pl3  50  ARG50      -0.0865
     38  CZ        19.0830   -1.8570   51.1580 C.cat  50  ARG50       0.5346
     39  NH1       19.0470   -0.5690   50.8350 N.pl3  50  ARG50       0.1354
     40  NH2       19.2050   -2.1560   52.4400 N.pl3  50  ARG50       0.1354
     41  N         36.1170    3.9630   48.8610 N.3   138  ARG138     -0.1245
     42  CA        35.5260    2.6810   48.5720 C.3   138  ARG138      0.1563
     43  C         35.5400    2.3720   47.0750 C.2   138  ARG138      0.2260
     44  O         35.8510    3.2320   46.2430 O.2   138  ARG138     -0.2867
     45  CB        34.1080    2.6930   49.1700 C.3   138  ARG138      0.0307
     46  CG        34.0440    2.8520   50.7090 C.3   138  ARG138      0.0489
     47  CD        32.5910    2.8980   51.2120 C.3   138  ARG138      0.2205
     48  NE        31.8750    3.9830   50.5370 N.pl3 138  ARG138     -0.0865
     49  CZ        30.5470    4.0830   50.4280 C.cat 138  ARG138      0.5346
     50  NH1       29.7080    3.1890   50.9540 N.pl3 138  ARG138      0.1354
     51  NH2       30.0590    5.0630   49.6680 N.pl3 138  ARG138      0.1354
     52  N         29.2600    0.7270   44.6740 N.3   142  CYS142     -0.1235
     53  CA        28.6320    0.9160   45.9820 C.3   142  CYS142      0.1677
     54  C         27.1330    0.6800   45.9450 C.2   142  CYS142      0.2270
     55  O         26.4710    0.6750   46.9860 O.2   142  CYS142     -0.2867
     56  CB        28.8840    2.3200   46.5100 C.3   142  CYS142      0.0956
     57  SG        30.6070    2.4810   47.0430 S.3   142  CYS142     -0.0801
     58  N         25.0820   -4.1410   47.9530 N.3   145  LYS145     -0.1245
     59  CA        25.2900   -4.1240   49.4060 C.3   145  LYS145      0.1561
     60  C         26.1000   -5.3920   49.7500 C.2   145  LYS145      0.2260
     61  O         25.5540   -6.4240   50.1270 O.2   145  LYS145     -0.2867
     62  CB        23.9030   -4.0870   50.1050 C.3   145  LYS145      0.0271
     63  CG        23.9380   -3.7860   51.6120 C.3   145  LYS145      0.0035
     64  CD        22.5040   -3.5090   52.0230 C.3   145  LYS145      0.0206
     65  CE        22.2630   -3.6510   53.5070 C.3   145  LYS145      0.1093
     66  NZ        22.6800   -2.4770   54.2540 N.3   145  LYS145     -0.1314
     67  N         33.3490   -4.5170   53.2500 N.3   149  LEU149     -0.1245
     68  CA        33.0300   -3.3440   54.0480 C.3   149  LEU149      0.1561
     69  C         34.1920   -2.6700   54.7490 C.2   149  LEU149      0.2260
     70  O         33.9650   -1.8730   55.6770 O.2   149  LEU149     -0.2867
     71  CB        31.9770   -3.7280   55.1000 C.3   149  LEU149      0.0270
     72  CG        30.5920   -4.0350   54.5520 C.3   149  LEU149      0.0019
     73  CD1       29.7410   -4.5900   55.6710 C.3   149  LEU149      0.0001
     74  CD2       29.9950   -2.7820   53.9140 C.3   149  LEU149      0.0001
     75  N         34.2020    1.2120   54.8950 N.3   152  ALA152     -0.1245
     76  CA        33.2000    1.7100   55.8340 C.3   152  ALA152      0.1562
     77  C         33.5650    1.4460   57.2850 C.2   152  ALA152      0.2260
     78  O         33.2320    2.2650   58.1390 O.2   152  ALA152     -0.2867
     79  CB        31.8680    1.0530   55.5130 C.3   152  ALA152      0.0290
     80  N         27.3580    9.3390   50.6040 N.3   177  GLU177     -0.1182
     81  CA        26.4670    8.8060   51.6430 C.3   177  GLU177      0.1915
     82  C         27.2550    8.6800   52.9400 C.2   177  GLU177      0.2635
     83  O         28.4060    9.1140   52.9830 O.2   177  GLU177     -0.2714
     84  CB        25.9360    7.4390   51.2220 C.2   177  GLU177      0.0085
     85  CG        26.9970    6.3510   51.0090 C.2   177  GLU177      0.0835
     86  CD        26.4910    5.0430   50.4280 C.2   177  GLU177      0.3877
     87  OE1       25.3220    4.7050   50.5900 O.co2 177  GLU177     -0.2406
     88  OE2       27.2730    4.3590   49.7760 O.co2 177  GLU177     -0.2406
     89  N         26.6630    8.1620   54.0180 N.am  178  GLY178     -0.1939
     90  CA        27.3700    7.9210   55.2590 C.3   178  GLY178      0.2014
     91  C         27.9920    6.5330   55.2790 C.2   178  GLY178      0.2640
     92  O         27.6990    5.7210   54.3940 O.2   178  GLY178     -0.2714
     93  N         28.8170    6.1990   56.2890 N.am  179  SER179     -0.1935
     94  CA        29.4450    4.8970   56.2980 C.3   179  SER179      0.2055
     95  C         28.4330    3.7790   56.4260 C.2   179  SER179      0.2644
     96  O         28.7020    2.6710   55.9820 O.2   179  SER179     -0.2714
     97  CB        30.4400    4.7910   57.4240 C.3   179  SER179      0.2130
     98  OG        29.8750    4.6950   58.7190 O.3   179  SER179     -0.2179
     99  N         27.2690    4.0410   57.0250 N.am  180  SER180     -0.1935
    100  CA        26.1750    3.0840   57.0370 C.3   180  SER180      0.2055
    101  C         24.7830    3.7180   56.9500 C.2   180  SER180      0.2644
    102  O         23.8130    3.2010   57.4910 O.2   180  SER180     -0.2714
    103  CB        26.2630    2.1970   58.2910 C.3   180  SER180      0.2130
    104  OG        26.3510    2.8880   59.5230 O.3   180  SER180     -0.2179
    105  N         24.6490    4.8240   56.2210 N.am  181  SER181     -0.1935
    106  CA        23.4060    5.5430   56.1150 C.3   181  SER181      0.2055
    107  C         23.4090    6.3560   54.8200 C.2   181  SER181      0.2643
    108  O         24.4280    6.4310   54.1210 O.2   181  SER181     -0.2714
    109  CB        23.2840    6.4400   57.3420 C.3   181  SER181      0.2130
    110  OG        24.1940    7.5170   57.2210 O.3   181  SER181     -0.2179
    111  N         22.2420    6.8610   54.4120 N.am  182  ASN182     -0.1971
    112  CA        22.1570    7.8250   53.3230 C.3   182  ASN182      0.1688
    113  C         22.1050    9.2000   53.9540 C.2   182  ASN182      0.2292
    114  O         21.7500    9.3220   55.1300 O.2   182  ASN182     -0.2864
    115  CB        20.9200    7.5860   52.4950 C.3   182  ASN182      0.1181
    116  CG        21.1560    6.3410   51.6690 C.2   182  ASN182      0.2629
    117  OD1       22.0290    6.3160   50.8060 O.2   182  ASN182     -0.2716
    118  ND2       20.4910    5.2430   51.9080 N.am  182  ASN182     -0.0877
    119  N         24.6090    3.4420   47.9770 N.3   201  LEU201     -0.1245
    120  CA        23.6060    2.3890   48.1600 C.3   201  LEU201      0.1561
    121  C         22.2190    3.0110   48.1180 C.2   201  LEU201      0.2260
    122  O         21.9650    4.0000   48.8090 O.2   201  LEU201     -0.2867
    123  CB        23.7400    1.6800   49.5010 C.3   201  LEU201      0.0270
    124  CG        22.7020    0.5750   49.7750 C.3   201  LEU201      0.0019
    125  CD1       22.8580   -0.5630   48.7630 C.3   201  LEU201      0.0001
    126  CD2       22.8770    0.0830   51.1850 C.3   201  LEU201      0.0001
    127  N         19.2680    3.2110   49.6700 N.3   203  GLY203     -0.1210
    128  CA        18.6240    2.8080   50.9010 C.3   203  GLY203      0.1956
    129  C         17.1050    2.7240   50.8560 C.2   203  GLY203      0.2612
    130  O         16.4160    3.4970   50.1990 O.2   203  GLY203     -0.2717
    131  N         16.5620    1.7310   51.5540 N.am  204  ILE204     -0.1965
    132  CA        15.1280    1.6120   51.6440 C.3   204  ILE204      0.1727
    133  C         14.6000    2.6920   52.5690 C.2   204  ILE204      0.2617
    134  O         13.5390    3.2290   52.2310 O.2   204  ILE204     -0.2715
    135  CB        14.8100    0.1940   52.1190 C.3   204  ILE204      0.0290
    136  CG1       15.2000   -0.6950   50.9290 C.3   204  ILE204      0.0022
    137  CG2       13.3400   -0.0050   52.5400 C.3   204  ILE204      0.0023
    138  CD1       15.1300   -2.1670   51.2320 C.3   204  ILE204      0.0001
    139  N         15.2510    3.0730   53.6850 N.am  205  THR205     -0.1937
    140  CA        14.7560    4.1810   54.5030 C.3   205  THR205      0.2028
    141  C         14.7860    5.4780   53.6550 C.2   205  THR205      0.2642
    142  O         13.8320    6.2630   53.6860 O.2   205  THR205     -0.2714
    143  CB        15.6250    4.3400   55.7870 C.3   205  THR205      0.1808
    144  OG1       15.8490    3.0510   56.3580 O.3   205  THR205     -0.2208
    145  CG2       14.9250    5.2120   56.8380 C.3   205  THR205      0.0379
    146  N         15.8290    5.7050   52.8250 N.am  206  ARG206     -0.1977
    147  CA        15.9480    6.8110   51.8830 C.3   206  ARG206      0.1597
    148  C         14.7220    6.8910   50.9970 C.2   206  ARG206      0.2287
    149  O         14.1350    7.9610   50.8390 O.2   206  ARG206     -0.2864
    150  CB        17.1860    6.6170   51.0000 C.3   206  ARG206      0.0334
    151  CG        17.4780    7.5840   49.8650 C.3   206  ARG206      0.0492
    152  CD        18.2740    6.8550   48.7950 C.3   206  ARG206      0.2205
    153  NE        18.7370    7.8050   47.8080 N.pl3 206  ARG206     -0.0865
    154  CZ        18.1200    8.0120   46.6480 C.cat 206  ARG206      0.5346
    155  NH1       17.0430    7.3180   46.2810 N.pl3 206  ARG206      0.1354
    156  NH2       18.6300    8.9160   45.8220 N.pl3 206  ARG206      0.1354
    157  N         19.8460    8.5290   57.3010 N.3   239  THR239     -0.1203
    158  CA        18.8270    7.5040   57.3640 C.3   239  THR239      0.1994
    159  C         19.3920    6.1040   57.2720 C.2   239  THR239      0.2619
    160  O         20.3430    5.8660   56.5310 O.2   239  THR239     -0.2717
    161  CB        17.7670    7.6590   56.2260 C.3   239  THR239      0.1784
    162  OG1       18.4300    7.5310   54.9680 O.3   239  THR239     -0.2211
    163  CG2       17.0550    9.0060   56.2790 C.3   239  THR239      0.0376
    164  N         18.8390    5.1720   58.0460 N.am  240  SER240     -0.1937
    165  CA        19.1090    3.7640   57.8420 C.3   240  SER240      0.2055
    166  C         18.0130    2.9720   58.5540 C.2   240  SER240      0.2643
    167  O         17.2780    3.5320   59.3710 O.2   240  SER240     -0.2714
    168  CB        20.4700    3.3630   58.4080 C.3   240  SER240      0.2130
    169  OG        20.4670    3.2330   59.8210 O.3   240  SER240     -0.2179
    170  N         17.8900    1.6630   58.2970 N.am  241  THR241     -0.1950
    171  CA        16.9130    0.8000   58.9410 C.3   241  THR241      0.1897
    172  C         16.9940    0.8650   60.4720 C.2   241  THR241      0.2313
    173  O         15.9550    0.8580   61.1360 O.2   241  THR241     -0.2863
    174  CB        17.1450   -0.6560   58.3920 C.3   241  THR241      0.1794
    175  OG1       16.8130   -0.5810   57.0040 O.3   241  THR241     -0.2208
    176  CG2       16.3170   -1.7570   59.0680 C.3   241  THR241      0.0378
@<TRIPOS>BOND
     1    52    53    1
     2   156   154    1
     3    54    53    1
     4    54    55    2
     5    53    56    1
     6    44    43    2
     7   155   154    1
     8    56    57    1
     9   154   153    2
    10    33    32    2
    11    43    42    1
    12    31    30    1
    13    31    32    1
    14    31    34    1
    15   153   152    1
    16    58    59    1
    17   119   120    1
    18    35    34    1
    19    35    36    1
    20   121   120    1
    21   121   122    2
    22   120   123    1
    23    42    41    1
    24    42    45    1
    25   125   124    1
    26   152   151    1
    27    36    37    1
    28    45    46    1
    29    59    60    1
    30    59    62    1
    31   123   124    1
    32    51    49    1
    33   127   128    1
    34    60    61    2
    35   124   126    1
    36    88    86   ar
    37   151   150    1
    38    62    63    1
    39   130   129    2
    40    37    38    2
    41    86    87   ar
    42    86    85    1
    43    49    48    2
    44    49    50    1
    45    48    47    1
    46    23    22    2
    47    80    81    1
    48    46    47    1
    49   117   116    2
    50    39    38    1
    51   149   148    2
    52   129   128    1
    53   129   131   am
    54   136   138    1
    55   136   135    1
    56   148   147    1
    57   150   147    1
    58    85    84    2
    59    22    21    1
    60    38    40    1
    61    84    81    1
    62    20    21    1
    63   131   132    1
    64    63    64    1
    65    81    82    1
    66   132   135    1
    67   132   133    1
    68   116   118   am
    69   116   115    1
    70    21    24    1
    71   147   146    1
    72     1     2    1
    73    64    65    1
    74   135   137    1
    75   134   133    2
    76     4     3    2
    77   115   112    1
    78   133   139   am
    79   146   141   am
    80    82    83    2
    81    82    89   am
    82     2     3    1
    83     2     5    1
    84    67    68    1
    85    24    25    1
    86   112   113    1
    87   112   111    1
    88    65    66    1
    89   141   142    2
    90   141   140    1
    91   139   140    1
    92    74    72    1
    93     7     9   ar
    94     7     6   ar
    95   113   114    2
    96    25    27   ar
    97    25    26   ar
    98    89    90    1
    99    68    69    1
   100    68    71    1
   101   108   107    2
   102     9    11   ar
   103    27    29   ar
   104    92    91    2
   105   111   107   am
   106     5     6    1
   107   140   143    1
   108    26    28   ar
   109    72    71    1
   110    72    73    1
   111     6     8   ar
   112    69    70    2
   113    29    28   ar
   114   107   106    1
   115    75    76    1
   116   162   161    1
   117    11    12    1
   118    11    10   ar
   119    90    91    1
   120    91    93   am
   121    79    76    1
   122     8    10   ar
   123   143   144    1
   124   143   145    1
   125    76    77    1
   126    96    95    2
   127   106   105    1
   128   106   109    1
   129   105   101   am
   130   161   163    1
   131   161   158    1
   132    93    94    1
   133    94    95    1
   134    94    97    1
   135    95    99   am
   136   160   159    2
   137    13    14    1
   138   101   100    1
   139   101   102    2
   140   175   174    1
   141    99   100    1
   142   100   103    1
   143    16    15    2
   144   110   109    1
   145   159   158    1
   146   159   164   am
   147    77    78    2
   148   157   158    1
   149    97    98    1
   150   165   164    1
   151   165   168    1
   152   165   166    1
   153    15    14    1
   154    14    17    1
   155   103   104    1
   156   170   166   am
   157   170   171    1
   158   174   171    1
   159   174   176    1
   160   168   169    1
   161   166   167    2
   162    17    19    1
   163    17    18    1
   164   171   172    1
   165   172   173    2
