@<TRIPOS>MOLECULE
tmp/1daeA00.pdb
 117 112 0 0 0
SMALL
GASTEIGER

@<TRIPOS>ATOM
      1  N          0.3020   24.9740    6.1750 N.3    11  THR11      -0.1218
      2  CA         0.0860   24.2540    7.4340 C.3    11  THR11       0.1862
      3  C          1.0840   23.1360    7.7680 C.2    11  THR11       0.2287
      4  O          1.4810   23.0460    8.9330 O.2    11  THR11      -0.2866
      5  CB        -1.3500   23.6790    7.4420 C.3    11  THR11       0.1770
      6  OG1       -1.4930   23.0510    6.1850 O.3    11  THR11      -0.2211
      7  CG2       -2.4530   24.6900    7.5650 C.3    11  THR11       0.0375
      8  N          6.9070   23.8950   10.8930 N.3    15  LYS15      -0.1245
      9  CA         7.1100   25.1520   11.5960 C.3    15  LYS15       0.1561
     10  C          7.5810   24.8840   13.0280 C.2    15  LYS15       0.2260
     11  O          8.5100   25.5510   13.5050 O.2    15  LYS15      -0.2867
     12  CB         5.7990   25.9550   11.6010 C.3    15  LYS15       0.0271
     13  CG         5.8040   27.2550   12.3910 C.3    15  LYS15       0.0035
     14  CD         4.4740   28.0150   12.2610 C.3    15  LYS15       0.0206
     15  CE         3.3250   27.1380   12.7500 C.3    15  LYS15       0.1093
     16  NZ         2.0470   27.8170   12.6750 N.3    15  LYS15      -0.1314
     17  N          2.8210   29.3370   22.5180 N.3    37  LYS37      -0.1245
     18  CA         1.9110   29.0560   21.4100 C.3    37  LYS37       0.1561
     19  C          0.5240   29.4170   21.9640 C.2    37  LYS37       0.2260
     20  O         -0.1090   28.5980   22.6210 O.2    37  LYS37      -0.2867
     21  CB         1.9880   27.5630   20.9840 C.3    37  LYS37       0.0271
     22  CG         1.1620   27.3380   19.7130 C.3    37  LYS37       0.0035
     23  CD         1.3360   25.9280   19.1790 C.3    37  LYS37       0.0206
     24  CE         0.4370   25.5360   17.9820 C.3    37  LYS37       0.1093
     25  NZ         0.9330   26.0190   16.6960 N.3    37  LYS37      -0.1314
     26  N         -3.8700   26.7090   20.0100 N.3    40  ALA40      -0.1231
     27  CA        -3.5650   25.4270   19.3860 C.3    40  ALA40       0.1694
     28  C         -4.8580   24.5980   19.1900 C.2    40  ALA40       0.2592
     29  O         -5.7970   24.6470   20.0070 O.2    40  ALA40      -0.2718
     30  CB        -2.5670   24.6300   20.2740 C.3    40  ALA40       0.0304
     31  N         -4.9890   23.8720   18.0810 N.am   41  SER41      -0.1952
     32  CA        -6.1200   22.9930   17.8960 C.3    41  SER41       0.1924
     33  C         -5.5380   21.7060   17.3450 C.2    41  SER41       0.2314
     34  O         -4.5090   21.7070   16.6460 O.2    41  SER41      -0.2863
     35  CB        -7.1400   23.6220   16.9320 C.3    41  SER41       0.2116
     36  OG        -6.5940   23.9750   15.6740 O.3    41  SER41      -0.2180
     37  N         -1.6400   19.6920   23.3620 N.3    52  ASN52      -0.1240
     38  CA        -1.2970   19.7170   21.9370 C.3    52  ASN52       0.1653
     39  C          0.1870   19.3050   21.7950 C.2    52  ASN52       0.2266
     40  O          1.0270   19.8540   22.5280 O.2    52  ASN52      -0.2867
     41  CB        -1.5700   21.1500   21.4500 C.3    52  ASN52       0.1155
     42  CG        -0.9960   21.4390   20.0880 C.2    52  ASN52       0.2627
     43  OD1       -1.5560   21.1620   19.0430 O.2    52  ASN52      -0.2716
     44  ND2        0.1650   22.0440   20.0310 N.am   52  ASN52      -0.0877
     45  N          2.6450   20.1050   19.5260 N.3    54  ASP54      -0.1239
     46  CA         3.5410   21.2130   19.1650 C.3    54  ASP54       0.1674
     47  C          3.8680   22.0680   20.3770 C.2    54  ASP54       0.2266
     48  O          5.0190   22.3750   20.6490 O.2    54  ASP54      -0.2867
     49  CB         2.9170   22.1170   18.0910 C.3    54  ASP54       0.1410
     50  CG         2.7540   21.4850   16.6990 C.2    54  ASP54       0.3668
     51  OD1        3.4010   20.4990   16.3770 O.co2  54  ASP54      -0.2456
     52  OD2        1.9970   22.0180   15.9000 O.co2  54  ASP54      -0.2456
     53  N         -8.6370   19.4170   15.2300 N.3    79  PRO79      -0.2102
     54  CA        -7.6770   20.0730   14.3540 C.3    79  PRO79       0.1504
     55  C         -8.2980   20.8700   13.1990 C.2    79  PRO79       0.2576
     56  O         -8.1880   20.4910   12.0340 O.2    79  PRO79      -0.2718
     57  CB        -6.7950   18.9040   13.9180 C.3    79  PRO79       0.0282
     58  CG        -7.7700   17.7710   13.7940 C.3    79  PRO79       0.0208
     59  CD        -8.6730   17.9680   15.0110 C.3    79  PRO79       0.0893
     60  N         -9.0060   21.9680   13.4760 N.am   80  THR80      -0.1939
     61  CA        -9.5590   22.7900   12.4170 C.3    80  THR80       0.2028
     62  C         -9.1310   24.2430   12.6720 C.2    80  THR80       0.2643
     63  O         -8.3170   24.5400   13.5640 O.2    80  THR80      -0.2714
     64  CB       -11.1030   22.6040   12.4490 C.3    80  THR80       0.1808
     65  OG1      -11.6190   23.3460   11.3480 O.3    80  THR80      -0.2208
     66  CG2      -11.7430   23.0600   13.7440 C.3    80  THR80       0.0379
     67  N         -9.6730   25.2000   11.9220 N.am   81  SER81      -0.1936
     68  CA        -9.3770   26.5950   12.1650 C.3    81  SER81       0.2040
     69  C         -9.9000   26.9830   13.5530 C.2    81  SER81       0.2485
     70  O        -11.0580   26.6830   13.8810 O.2    81  SER81      -0.2729
     71  CB       -10.0410   27.4140   11.0940 C.3    81  SER81       0.2129
     72  OG        -9.7810   28.8050   11.1490 O.3    81  SER81      -0.2179
     73  N         -9.0990   27.6590   14.3850 N.am   82  PRO82      -0.2726
     74  CA        -9.4460   28.0600   15.7430 C.3    82  PRO82       0.1402
     75  C        -10.7340   28.8510   15.7780 C.2    82  PRO82       0.2269
     76  O        -11.5050   28.6320   16.7210 O.2    82  PRO82      -0.2865
     77  CB        -8.2960   28.8860   16.2400 C.3    82  PRO82       0.0296
     78  CG        -7.1110   28.4820   15.3730 C.3    82  PRO82       0.0237
     79  CD        -7.7840   28.2010   14.0190 C.3    82  PRO82       0.0939
     80  N         -0.6930   29.7720   14.8600 N.3   117  ALA117     -0.1231
     81  CA        -1.3300   28.5580   14.3710 C.3   117  ALA117      0.1694
     82  C         -1.5760   28.7530   12.8680 C.2   117  ALA117      0.2593
     83  O         -1.9600   29.8520   12.4540 O.2   117  ALA117     -0.2718
     84  CB        -2.6380   28.3470   15.1080 C.3   117  ALA117      0.0304
     85  N         -1.3360   27.7410   12.0410 N.am  118  GLY118     -0.1942
     86  CA        -1.5020   27.8620   10.5960 C.3   118  GLY118      0.2014
     87  C         -0.5040   28.8400    9.9820 C.2   118  GLY118      0.2639
     88  O          0.6680   28.9520   10.3460 O.2   118  GLY118     -0.2714
     89  N         -1.0170   29.4440    8.9220 N.am  119  GLY119     -0.1954
     90  CA        -0.3090   30.4840    8.1930 C.3   119  GLY119      0.1869
     91  C         -0.6070   31.8920    8.7170 C.2   119  GLY119      0.2309
     92  O         -1.2130   32.0570    9.7830 O.2   119  GLY119     -0.2863
     93  N         -2.7660   34.4950    7.8250 N.3   121  PHE121     -0.1227
     94  CA        -4.0970   34.9740    8.0570 C.3   121  PHE121      0.1736
     95  C         -5.0380   34.0360    8.8170 C.2   121  PHE121      0.2596
     96  O         -6.2500   34.1520    8.6370 O.2   121  PHE121     -0.2718
     97  CB        -4.6400   35.3700    6.6820 C.3   121  PHE121      0.0547
     98  CG        -4.2490   36.7790    6.2280 C.ar  121  PHE121     -0.0202
     99  CD1       -4.4240   37.8840    7.0820 C.ar  121  PHE121     -0.0042
    100  CD2       -3.7520   36.9780    4.9340 C.ar  121  PHE121     -0.0042
    101  CE1       -4.1130   39.1670    6.6400 C.ar  121  PHE121     -0.0003
    102  CE2       -3.4320   38.2560    4.4930 C.ar  121  PHE121     -0.0003
    103  CZ        -3.6180   39.3510    5.3380 C.ar  121  PHE121     -0.0000
    104  N         -4.6450   33.1310    9.7230 N.am  122  THR122     -0.1939
    105  CA        -5.6150   32.2980   10.4530 C.3   122  THR122      0.2013
    106  C         -6.6260   33.1080   11.2830 C.2   122  THR122      0.2484
    107  O         -6.2460   33.9260   12.1340 O.2   122  THR122     -0.2729
    108  CB        -4.7800   31.3830   11.3710 C.3   122  THR122      0.1807
    109  OG1       -3.8930   30.7240   10.4540 O.3   122  THR122     -0.2208
    110  CG2       -5.5950   30.4220   12.2290 C.3   122  THR122      0.0379
    111  N         -7.9630   32.9550   11.0280 N.am  123  PRO123     -0.2726
    112  CA        -9.0370   33.6030   11.7720 C.3   123  PRO123      0.1402
    113  C         -9.0870   33.1060   13.2180 C.2   123  PRO123      0.2269
    114  O         -9.0060   31.8890   13.4660 O.2   123  PRO123     -0.2865
    115  CB       -10.2930   33.2440   11.0180 C.3   123  PRO123      0.0296
    116  CG        -9.8370   32.8350    9.6280 C.3   123  PRO123      0.0237
    117  CD        -8.5040   32.1720    9.9040 C.3   123  PRO123      0.0939
@<TRIPOS>BOND
     1   102   100   ar
     2   102   103   ar
     3   100    98   ar
     4   103   101   ar
     5     1     2    1
     6     6     5    1
     7    98    97    1
     8    98    99   ar
     9   101    99   ar
    10    97    94    1
    11     2     5    1
    12     2     3    1
    13     5     7    1
    14     3     4    2
    15    93    94    1
    16    94    95    1
    17    90    91    1
    18    90    89    1
    19    96    95    2
    20    91    92    2
    21    95   104   am
    22    89    87   am
    23   116   117    1
    24   116   115    1
    25   104   105    1
    26   117   111    1
    27    87    88    2
    28    87    86    1
    29   105   106    1
    30   105   108    1
    31   109   108    1
    32    86    85    1
    33     8     9    1
    34   115   112    1
    35   111   106   am
    36   111   112    1
    37    71    72    1
    38    71    68    1
    39   106   107    2
    40    65    64    1
    41   108   110    1
    42     9    12    1
    43     9    10    1
    44    12    13    1
    45   112   113    1
    46    67    68    1
    47    67    62   am
    48    56    55    2
    49    85    82   am
    50    68    69    1
    51    14    13    1
    52    14    15    1
    53    61    64    1
    54    61    62    1
    55    61    60    1
    56    64    66    1
    57    83    82    2
    58    62    63    2
    59    16    15    1
    60    82    81    1
    61    10    11    2
    62    55    60   am
    63    55    54    1
    64   113   114    2
    65    69    70    2
    66    69    73   am
    67    58    57    1
    68    58    59    1
    69    57    54    1
    70    79    73    1
    71    79    78    1
    72    54    53    1
    73    81    80    1
    74    81    84    1
    75    73    74    1
    76    59    53    1
    77    78    77    1
    78    36    35    1
    79    74    75    1
    80    74    77    1
    81    75    76    2
    82    52    50   ar
    83    51    50   ar
    84    34    33    2
    85    25    24    1
    86    50    49    1
    87    35    32    1
    88    33    32    1
    89    32    31    1
    90    24    23    1
    91    31    28   am
    92    49    46    1
    93    43    42    2
    94    46    45    1
    95    46    47    1
    96    23    22    1
    97    28    27    1
    98    28    29    2
    99    27    26    1
   100    27    30    1
   101    22    21    1
   102    44    42   am
   103    42    41    1
   104    47    48    2
   105    21    18    1
   106    18    19    1
   107    18    17    1
   108    41    38    1
   109    39    38    1
   110    39    40    2
   111    38    37    1
   112    19    20    2
