@<TRIPOS>MOLECULE
tmp/1dahA01.pdb
 167 162 0 0 0
SMALL
GASTEIGER

@<TRIPOS>ATOM
      1  N          0.2660   25.6430    6.6270 N.3    11  THR11      -0.1203
      2  CA         0.1610   24.7150    7.7530 C.3    11  THR11       0.1994
      3  C          1.0230   23.5070    7.3170 C.2    11  THR11       0.2618
      4  O          1.1800   23.2490    6.1180 O.2    11  THR11      -0.2717
      5  CB        -1.3580   24.3360    7.9720 C.3    11  THR11       0.1784
      6  OG1       -1.4400   23.5290    9.1740 O.3    11  THR11      -0.2211
      7  CG2       -1.9670   23.6020    6.7680 C.3    11  THR11       0.0376
      8  N          1.6240   22.8040    8.2650 N.am   12  GLU12      -0.1965
      9  CA         2.4670   21.6440    8.0100 C.3    12  GLU12       0.1733
     10  C          3.7030   21.9170    7.1660 C.2    12  GLU12       0.2616
     11  O          4.0500   21.1060    6.3220 O.2    12  GLU12      -0.2715
     12  CB         1.7090   20.4850    7.3010 C.3    12  GLU12       0.0429
     13  CG         0.4270   19.9080    7.9170 C.3    12  GLU12       0.1163
     14  CD         0.5020   19.4650    9.3760 C.2    12  GLU12       0.3649
     15  OE1        1.5080   18.8710    9.7880 O.co2  12  GLU12      -0.2457
     16  OE2       -0.4620   19.7420   10.0990 O.co2  12  GLU12      -0.2457
     17  N          4.4520   23.0080    7.3450 N.am   13  VAL13      -0.1963
     18  CA         5.7380   23.1650    6.6440 C.3    13  VAL13       0.1727
     19  C          6.9240   22.9430    7.5800 C.2    13  VAL13       0.2617
     20  O          8.0610   23.1920    7.1940 O.2    13  VAL13      -0.2715
     21  CB         5.8970   24.5860    6.0060 C.3    13  VAL13       0.0290
     22  CG1        4.9310   24.6370    4.8270 C.3    13  VAL13       0.0023
     23  CG2        5.6100   25.7310    6.9860 C.3    13  VAL13       0.0023
     24  N          6.7220   22.5680    8.8530 N.am   14  GLY14      -0.1940
     25  CA         7.8180   22.4080    9.8080 C.3    14  GLY14       0.2014
     26  C          8.0100   23.5840   10.7470 C.2    14  GLY14       0.2639
     27  O          9.0570   23.7400   11.3540 O.2    14  GLY14      -0.2714
     28  N          6.9820   24.3940   10.9770 N.am   15  LYS15      -0.1963
     29  CA         7.0990   25.5410   11.8660 C.3    15  LYS15       0.1728
     30  C          7.5090   25.1030   13.2780 C.2    15  LYS15       0.2617
     31  O          8.3530   25.7680   13.8770 O.2    15  LYS15      -0.2715
     32  CB         5.7510   26.2230   11.8150 C.3    15  LYS15       0.0311
     33  CG         5.5140   27.6230   12.2740 C.3    15  LYS15       0.0038
     34  CD         4.1000   28.0740   11.8190 C.3    15  LYS15       0.0206
     35  CE         2.9400   27.1610   12.2820 C.3    15  LYS15       0.1093
     36  NZ         2.4010   26.4070   11.1410 N.3    15  LYS15      -0.1314
     37  N          6.9900   24.0010   13.8450 N.am   16  THR16      -0.1937
     38  CA         7.4400   23.6350   15.1890 C.3    16  THR16       0.2028
     39  C          8.8600   23.0990   15.1660 C.2    16  THR16       0.2642
     40  O          9.6210   23.3670   16.0910 O.2    16  THR16      -0.2714
     41  CB         6.4600   22.6230   15.7980 C.3    16  THR16       0.1808
     42  OG1        5.1820   23.2720   15.7930 O.3    16  THR16      -0.2208
     43  CG2        6.8390   22.1890   17.2140 C.3    16  THR16       0.0379
     44  N          9.2880   22.4620   14.0730 N.am   17  VAL17      -0.1977
     45  CA        10.6480   21.9400   13.9610 C.3    17  VAL17       0.1596
     46  C         11.6330   23.1030   13.9280 C.2    17  VAL17       0.2287
     47  O         12.6510   23.1080   14.6570 O.2    17  VAL17      -0.2864
     48  CB        10.7830   21.0330   12.6590 C.3    17  VAL17       0.0276
     49  CG1       12.2420   20.6180   12.3740 C.3    17  VAL17       0.0022
     50  CG2        9.9880   19.7320   12.8910 C.3    17  VAL17       0.0022
     51  N          2.8700   29.2790   22.5500 N.3    37  LYS37      -0.1245
     52  CA         1.9410   28.8970   21.4790 C.3    37  LYS37       0.1561
     53  C          0.5520   29.3330   21.9780 C.2    37  LYS37       0.2260
     54  O         -0.1400   28.5740   22.6550 O.2    37  LYS37      -0.2867
     55  CB         2.0290   27.3620   21.2500 C.3    37  LYS37       0.0271
     56  CG         1.0310   26.7270   20.2680 C.3    37  LYS37       0.0035
     57  CD         1.5590   26.4220   18.8690 C.3    37  LYS37       0.0206
     58  CE         0.4240   25.8950   17.9560 C.3    37  LYS37       0.1093
     59  NZ         0.8620   25.9430   16.5670 N.3    37  LYS37      -0.1314
     60  N         -5.0270   24.0200   18.0720 N.3    41  SER41      -0.1217
     61  CA        -6.1420   23.1680   17.7370 C.3    41  SER41       0.1889
     62  C         -5.4970   21.8450   17.2960 C.2    41  SER41       0.2288
     63  O         -4.4350   21.8050   16.6280 O.2    41  SER41      -0.2866
     64  CB        -6.9460   23.8340   16.6200 C.3    41  SER41       0.2089
     65  OG        -6.1990   24.0720   15.4190 O.3    41  SER41      -0.2183
     66  N          2.6400   20.3740   19.5950 N.3    54  ASP54      -0.1239
     67  CA         3.4880   21.5200   19.3060 C.3    54  ASP54       0.1674
     68  C          3.8540   22.2550   20.5780 C.2    54  ASP54       0.2266
     69  O          5.0240   22.5130   20.8630 O.2    54  ASP54      -0.2867
     70  CB         2.7810   22.5200   18.3950 C.3    54  ASP54       0.1410
     71  CG         2.4840   22.0950   16.9640 C.2    54  ASP54       0.3668
     72  OD1        2.8990   21.0250   16.4980 O.co2  54  ASP54      -0.2456
     73  OD2        1.8540   22.9000   16.2960 O.co2  54  ASP54      -0.2456
     74  N          4.7890   31.0830   18.5190 N.3   115  GLU115     -0.1245
     75  CA         4.4640   30.3220   17.3180 C.3   115  GLU115      0.1567
     76  C          2.9910   30.5790   17.0490 C.2   115  GLU115      0.2260
     77  O          2.1650   30.5220   17.9590 O.2   115  GLU115     -0.2867
     78  CB         4.7170   28.8200   17.5450 C.3   115  GLU115      0.0388
     79  CG         4.6060   27.9920   16.2970 C.3   115  GLU115      0.1160
     80  CD         4.7670   26.4750   16.4230 C.2   115  GLU115      0.3649
     81  OE1        5.7920   26.0240   16.9190 O.co2 115  GLU115     -0.2457
     82  OE2        3.8840   25.7480   15.9630 O.co2 115  GLU115     -0.2457
     83  N         -1.2960   27.7630   11.9840 N.3   118  GLY118     -0.1225
     84  CA        -1.4790   27.7840   10.5210 C.3   118  GLY118      0.1811
     85  C         -0.5320   28.7850    9.8430 C.2   118  GLY118      0.2280
     86  O          0.6580   28.8650   10.1970 O.2   118  GLY118     -0.2866
     87  N         13.2060   24.9020    5.4580 N.3   175  ASN175     -0.1225
     88  CA        13.0120   23.6000    6.0470 C.3   175  ASN175      0.1785
     89  C         12.8280   22.5250    4.9740 C.2   175  ASN175      0.2597
     90  O         11.9300   22.6080    4.1260 O.2   175  ASN175     -0.2718
     91  CB        11.7960   23.6390    6.9650 C.3   175  ASN175      0.1169
     92  CG        11.6590   22.3570    7.7650 C.2   175  ASN175      0.2627
     93  OD1       12.6210   21.6830    8.1030 O.2   175  ASN175     -0.2716
     94  ND2       10.4840   21.9100    8.1260 N.am  175  ASN175     -0.0877
     95  N         13.7150   21.5370    4.9240 N.am  176  ASP176     -0.1960
     96  CA        13.5980   20.5010    3.9130 C.3   176  ASP176      0.1840
     97  C         12.6290   19.4110    4.3020 C.2   176  ASP176      0.2621
     98  O         12.9190   18.4680    5.0230 O.2   176  ASP176     -0.2715
     99  CB        14.9460   19.8870    3.6530 C.3   176  ASP176      0.1450
    100  CG        15.9930   20.9000    3.2060 C.2   176  ASP176      0.3671
    101  OD1       15.6650   21.9900    2.7250 O.co2 176  ASP176     -0.2456
    102  OD2       17.1620   20.5980    3.3500 O.co2 176  ASP176     -0.2456
    103  N         11.4150   19.6110    3.8440 N.am  177  VAL177     -0.1977
    104  CA        10.3220   18.7060    4.1390 C.3   177  VAL177      0.1596
    105  C         10.4030   17.4410    3.2750 C.2   177  VAL177      0.2287
    106  O          9.7450   16.4680    3.6350 O.2   177  VAL177     -0.2864
    107  CB         8.9550   19.4450    3.9510 C.3   177  VAL177      0.0276
    108  CG1        8.9460   20.5490    4.9900 C.3   177  VAL177      0.0022
    109  CG2        8.7400   20.0400    2.5670 C.3   177  VAL177      0.0022
    110  N         17.2980   23.5860    7.6600 N.3   203  ILE203     -0.1231
    111  CA        17.2160   22.3420    8.4030 C.3   203  ILE203      0.1678
    112  C         17.0500   21.2160    7.3700 C.2   203  ILE203      0.2434
    113  O         16.1400   21.2610    6.5130 O.2   203  ILE203     -0.2733
    114  CB        16.0270   22.4630    9.3570 C.3   203  ILE203      0.0265
    115  CG1       16.2910   23.6190   10.3380 C.3   203  ILE203      0.0019
    116  CG2       15.8290   21.1490   10.1240 C.3   203  ILE203      0.0020
    117  CD1       15.0020   24.1110   11.0120 C.3   203  ILE203      0.0001
    118  N         17.9460   20.2170    7.3760 N.am  204  PRO204     -0.2718
    119  CA        17.9010   19.0870    6.4380 C.3   204  PRO204      0.1535
    120  C         16.7150   18.1720    6.7290 C.2   204  PRO204      0.2599
    121  O         16.1120   18.2470    7.8160 O.2   204  PRO204     -0.2715
    122  CB        19.2480   18.4170    6.6200 C.3   204  PRO204      0.0310
    123  CG        19.6120   18.7040    8.0420 C.3   204  PRO204      0.0237
    124  CD        19.0500   20.0920    8.3140 C.3   204  PRO204      0.0939
    125  N         16.4050   17.2870    5.7740 N.am  205  TRP205     -0.1960
    126  CA        15.2940   16.3550    5.8750 C.3   205  TRP205      0.1771
    127  C         15.7230   15.3570    6.9400 C.2   205  TRP205      0.2620
    128  O         16.8080   14.7640    6.8630 O.2   205  TRP205     -0.2715
    129  CB        15.0400   15.6440    4.5110 C.3   205  TRP205      0.0590
    130  CG        14.0340   14.4930    4.5710 C.ar  205  TRP205      0.0006
    131  CD1       12.7030   14.7360    4.7970 C.ar  205  TRP205      0.0946
    132  CD2       14.3100   13.1470    4.4830 C.ar  205  TRP205      0.0152
    133  NE1       12.1360   13.5630    4.8480 N.ar  205  TRP205     -0.2442
    134  CE2       13.0380   12.5870    4.6740 C.ar  205  TRP205      0.0810
    135  CE3       15.4120   12.3010    4.2760 C.ar  205  TRP205      0.0012
    136  CZ2       12.8770   11.1880    4.6520 C.ar  205  TRP205      0.0191
    137  CZ3       15.2460   10.9230    4.2560 C.ar  205  TRP205      0.0001
    138  CH2       13.9900   10.3720    4.4460 C.ar  205  TRP205      0.0015
    139  N         14.9390   15.1620    7.9850 N.am  206  LEU206     -0.1963
    140  CA        15.2980   14.2400    9.0500 C.3   206  LEU206      0.1728
    141  C         14.0830   13.3310    9.1520 C.2   206  LEU206      0.2616
    142  O         12.9860   13.7210    9.5540 O.2   206  LEU206     -0.2715
    143  CB        15.5500   15.0280   10.3500 C.3   206  LEU206      0.0311
    144  CG        16.7460   15.9820   10.2940 C.3   206  LEU206      0.0022
    145  CD1       16.5600   17.1260   11.2740 C.3   206  LEU206      0.0001
    146  CD2       18.0150   15.1700   10.4900 C.3   206  LEU206      0.0001
    147  N         14.2640   12.1180    8.6750 N.am  207  ALA207     -0.1977
    148  CA        13.1940   11.1380    8.7090 C.3   207  ALA207      0.1597
    149  C         12.5000   10.9440   10.0680 C.2   207  ALA207      0.2287
    150  O         11.3240   11.2700   10.2250 O.2   207  ALA207     -0.2864
    151  CB        13.7970    9.8250    8.2340 C.3   207  ALA207      0.0319
    152  N         12.0180   14.7950   13.9290 N.3   210  PRO210     -0.2102
    153  CA        12.9310   15.9430   13.8290 C.3   210  PRO210      0.1504
    154  C         12.8030   17.0030   14.9220 C.2   210  PRO210      0.2575
    155  O         13.7380   17.7650   15.1700 O.2   210  PRO210     -0.2718
    156  CB        12.6630   16.4850   12.4330 C.3   210  PRO210      0.0282
    157  CG        11.2040   16.1510   12.1940 C.3   210  PRO210      0.0208
    158  CD        11.1400   14.7390   12.7580 C.3   210  PRO210      0.0893
    159  N         11.6530   17.0620   15.6240 N.am  211  GLU211     -0.1980
    160  CA        11.4370   18.0180   16.7160 C.3   211  GLU211      0.1602
    161  C         12.2160   17.6540   18.0050 C.2   211  GLU211      0.2287
    162  O         12.5020   18.5160   18.8560 O.2   211  GLU211     -0.2864
    163  CB         9.9090   18.1680   17.0240 C.3   211  GLU211      0.0415
    164  CG         8.9520   16.9830   17.1000 C.3   211  GLU211      0.1163
    165  CD         8.7500   16.1660   15.8110 C.2   211  GLU211      0.3649
    166  OE1        8.1580   16.6200   14.8050 O.co2 211  GLU211     -0.2457
    167  OE2        9.2070   15.0280   15.8250 O.co2 211  GLU211     -0.2457
@<TRIPOS>BOND
     1   109   107    1
     2   101   100   ar
     3   100   102   ar
     4   100    99    1
     5   105   106    2
     6   105   104    1
     7    99    96    1
     8   103   104    1
     9   103    97   am
    10    96    97    1
    11    96    95    1
    12   107   104    1
    13   107   108    1
    14    90    89    2
    15   137   135   ar
    16   137   138   ar
    17   135   132   ar
    18    97    98    2
    19   138   136   ar
    20   132   130   ar
    21   132   134   ar
    22   129   130    1
    23   129   126    1
    24   130   131   ar
    25   136   134   ar
    26   134   133   ar
    27   131   133   ar
    28    22    21    1
    29    95    89   am
    30    89    88    1
    31    87    88    1
    32   125   126    1
    33   125   120   am
    34   126   127    1
    35    21    18    1
    36    21    23    1
    37    88    91    1
    38     4     3    2
    39    11    10    2
    40   119   122    1
    41   119   120    1
    42   119   118    1
    43   113   112    2
    44   122   123    1
    45     1     2    1
    46    18    17    1
    47    18    19    1
    48   120   121    2
    49     7     5    1
    50   128   127    2
    51   127   139   am
    52    91    92    1
    53    10    17   am
    54    10     9    1
    55    20    19    2
    56    12    13    1
    57    12     9    1
    58     3     2    1
    59     3     8   am
    60   112   118   am
    61   112   111    1
    62   118   124    1
    63    19    24   am
    64   110   111    1
    65     2     5    1
    66    92    93    2
    67    92    94   am
    68    13    14    1
    69     5     6    1
    70   139   140    1
    71     9     8    1
    72   123   124    1
    73   151   148    1
    74   111   114    1
    75   147   148    1
    76   147   141   am
    77   148   149    1
    78    24    25    1
    79   140   141    1
    80   140   143    1
    81   141   142    2
    82   114   116    1
    83   114   115    1
    84    14    15   ar
    85    14    16   ar
    86    25    26    1
    87    85    86    2
    88    85    84    1
    89   149   150    2
    90   144   143    1
    91   144   146    1
    92   144   145    1
    93   115   117    1
    94    84    83    1
    95    26    28   am
    96    26    27    2
    97    28    29    1
    98    36    35    1
    99    32    29    1
   100    32    33    1
   101    34    33    1
   102    34    35    1
   103    29    30    1
   104   157   156    1
   105   157   158    1
   106    49    48    1
   107   156   153    1
   108    48    50    1
   109    48    45    1
   110   158   152    1
   111    30    37   am
   112    30    31    2
   113   153   152    1
   114   153   154    1
   115    37    38    1
   116    46    45    1
   117    46    47    2
   118    45    44    1
   119    44    39   am
   120   166   165   ar
   121   154   155    2
   122   154   159   am
   123    39    38    1
   124    39    40    2
   125    38    41    1
   126    65    64    1
   127   159   160    1
   128    42    41    1
   129    41    43    1
   130   165   167   ar
   131   165   164    1
   132    82    80   ar
   133    73    71   ar
   134    79    80    1
   135    79    78    1
   136    80    81   ar
   137    72    71   ar
   138    59    58    1
   139    64    61    1
   140    63    62    2
   141   160   163    1
   142   160   161    1
   143    71    70    1
   144   163   164    1
   145    76    75    1
   146    76    77    2
   147    62    61    1
   148    75    78    1
   149    75    74    1
   150    61    60    1
   151    58    57    1
   152   161   162    2
   153    70    67    1
   154    57    56    1
   155    67    66    1
   156    67    68    1
   157    56    55    1
   158    68    69    2
   159    55    52    1
   160    52    53    1
   161    52    51    1
   162    53    54    2
