@<TRIPOS>MOLECULE
tmp/1dajA01.pdb
 188 179 0 0 0
SMALL
GASTEIGER

@<TRIPOS>ATOM
      1  N          5.6900    3.9150   16.9290 N.3    10  ILE10      -0.1231
      2  CA         6.2170    3.2070   15.7450 C.3    10  ILE10       0.1692
      3  C          7.6910    2.9000   15.9930 C.2    10  ILE10       0.2592
      4  O          8.4950    3.7740   16.3130 O.2    10  ILE10      -0.2718
      5  CB         5.8770    3.9840   14.4410 C.3    10  ILE10       0.0266
      6  CG1        6.6670    3.3670   13.2820 C.3    10  ILE10       0.0019
      7  CG2        6.1220    5.5160   14.5990 C.3    10  ILE10       0.0020
      8  CD1        6.0970    3.6580   11.8680 C.3    10  ILE10       0.0001
      9  N          7.9790    1.6170   15.8260 N.am   11  VAL11      -0.1966
     10  CA         9.3250    1.1050   16.0670 C.3    11  VAL11       0.1727
     11  C          9.7020   -0.0910   15.2110 C.2    11  VAL11       0.2616
     12  O          8.8830   -0.8130   14.6300 O.2    11  VAL11      -0.2715
     13  CB         9.2400    0.7080   17.5690 C.3    11  VAL11       0.0290
     14  CG1        8.0700   -0.2690   17.7630 C.3    11  VAL11       0.0023
     15  CG2       10.5250    0.1770   18.1630 C.3    11  VAL11       0.0023
     16  N         11.0260   -0.2550   15.2180 N.am   12  ALA12      -0.1977
     17  CA        11.7030   -1.3590   14.5340 C.3    12  ALA12       0.1597
     18  C         12.5210   -1.9570   15.6950 C.2    12  ALA12       0.2287
     19  O         13.4130   -1.2700   16.2000 O.2    12  ALA12      -0.2864
     20  CB        12.5840   -0.8930   13.3730 C.3    12  ALA12       0.0319
     21  N         21.1170    3.2890   14.7810 N.3    25  LEU25      -0.1245
     22  CA        20.4270    2.1420   14.1700 C.3    25  LEU25       0.1561
     23  C         21.4380    1.1850   13.5450 C.2    25  LEU25       0.2260
     24  O         22.0120    1.4790   12.4790 O.2    25  LEU25      -0.2867
     25  CB        19.3480    2.5680   13.1800 C.3    25  LEU25       0.0270
     26  CG        17.9990    2.8900   13.7980 C.3    25  LEU25       0.0019
     27  CD1       16.8800    2.7630   12.7740 C.3    25  LEU25       0.0001
     28  CD2       17.8110    1.9280   14.9720 C.3    25  LEU25       0.0001
     29  N         16.3450   -0.0130    4.3780 N.3    30  LYS30      -0.1245
     30  CA        15.9400    1.0590    3.4610 C.3    30  LYS30       0.1561
     31  C         14.4840    1.0030    3.0320 C.2    30  LYS30       0.2260
     32  O         13.8820    2.0740    2.7820 O.2    30  LYS30      -0.2867
     33  CB        16.9250    1.0810    2.2920 C.3    30  LYS30       0.0271
     34  CG        17.0370    2.3960    1.5400 C.3    30  LYS30       0.0035
     35  CD        17.3810    2.1770    0.0630 C.3    30  LYS30       0.0206
     36  CE        16.1960    1.7790   -0.7880 C.3    30  LYS30       0.1093
     37  NZ        16.2230    0.3270   -1.1720 N.3    30  LYS30      -0.1314
     38  N         12.4600   -0.5870    4.9630 N.3    32  GLU32      -0.1231
     39  CA        11.8240   -0.5450    6.2950 C.3    32  GLU32       0.1699
     40  C         11.5590    0.9630    6.5410 C.2    32  GLU32       0.2592
     41  O         10.4400    1.3230    6.9370 O.2    32  GLU32      -0.2718
     42  CB        12.5920   -1.1550    7.4320 C.3    32  GLU32       0.0402
     43  CG        11.9980   -1.1440    8.8280 C.3    32  GLU32       0.1161
     44  CD        11.7700    0.1770    9.4940 C.2    32  GLU32       0.3649
     45  OE1       12.6100    1.0570    9.6060 O.co2  32  GLU32      -0.2457
     46  OE2       10.6030    0.2800    9.9310 O.co2  32  GLU32      -0.2457
     47  N         12.5590    1.7560    6.2180 N.am   33  ILE33      -0.1980
     48  CA        12.5290    3.2230    6.3570 C.3    33  ILE33       0.1595
     49  C         11.5490    3.9060    5.4040 C.2    33  ILE33       0.2287
     50  O         11.2300    5.0990    5.6020 O.2    33  ILE33      -0.2864
     51  CB        13.9590    3.8500    6.2890 C.3    33  ILE33       0.0276
     52  CG1       14.6630    3.6930    7.6690 C.3    33  ILE33       0.0022
     53  CG2       14.0050    5.3510    5.8580 C.3    33  ILE33       0.0022
     54  CD1       14.4760    4.9680    8.5440 C.3    33  ILE33       0.0001
     55  N          8.6320    2.3440    4.7700 N.3    35  TYR35      -0.1227
     56  CA         7.3800    1.9380    5.4120 C.3    35  TYR35       0.1736
     57  C          7.0700    3.1310    6.3450 C.2    35  TYR35       0.2595
     58  O          6.0270    3.7760    6.3260 O.2    35  TYR35      -0.2718
     59  CB         7.5620    0.6510    6.2070 C.3    35  TYR35       0.0548
     60  CG         6.3800    0.3000    7.0650 C.ar   35  TYR35      -0.0200
     61  CD1        5.1660   -0.0320    6.4350 C.ar   35  TYR35      -0.0009
     62  CD2        6.4300    0.3060    8.4560 C.ar   35  TYR35      -0.0009
     63  CE1        4.0500   -0.3510    7.1870 C.ar   35  TYR35       0.0417
     64  CE2        5.3050   -0.0140    9.2170 C.ar   35  TYR35       0.0417
     65  CZ         4.1190   -0.3480    8.5750 C.ar   35  TYR35       0.1957
     66  OH         3.0060   -0.6890    9.3090 O.3    35  TYR35      -0.2866
     67  N          8.1170    3.3640    7.1180 N.am   36  PHE36      -0.1962
     68  CA         8.1730    4.4270    8.1190 C.3    36  PHE36       0.1771
     69  C          7.6190    5.7110    7.5050 C.2    36  PHE36       0.2619
     70  O          6.5440    6.1520    7.9180 O.2    36  PHE36      -0.2715
     71  CB         9.5830    4.5820    8.6770 C.3    36  PHE36       0.0574
     72  CG         9.6530    5.6760    9.6910 C.ar   36  PHE36      -0.0200
     73  CD1        9.2360    5.4130   11.0060 C.ar   36  PHE36      -0.0042
     74  CD2       10.1060    6.9450    9.3420 C.ar   36  PHE36      -0.0042
     75  CE1        9.3030    6.4270   11.9650 C.ar   36  PHE36      -0.0003
     76  CE2       10.1650    7.9620   10.2920 C.ar   36  PHE36      -0.0003
     77  CZ         9.7520    7.6950   11.6110 C.ar   36  PHE36      -0.0000
     78  N          8.3790    6.2180    6.5510 N.am   37  LYS37      -0.1977
     79  CA         8.0680    7.4320    5.7960 C.3    37  LYS37       0.1596
     80  C          6.6070    7.4380    5.3480 C.2    37  LYS37       0.2287
     81  O          5.8170    8.3710    5.5610 O.2    37  LYS37      -0.2864
     82  CB         9.0580    7.5300    4.6630 C.3    37  LYS37       0.0298
     83  CG         9.0720    8.6250    3.6240 C.3    37  LYS37       0.0038
     84  CD        10.4330    8.5730    2.8980 C.3    37  LYS37       0.0206
     85  CE        10.4450    7.5150    1.8140 C.3    37  LYS37       0.1093
     86  NZ        11.8190    6.9920    1.5640 N.3    37  LYS37      -0.1314
     87  N         17.0890   10.9610   19.0640 N.3    61  THR61      -0.1218
     88  CA        16.5900   10.4410   17.7870 C.3    61  THR61       0.1862
     89  C         16.7940   11.5660   16.7620 C.2    61  THR61       0.2287
     90  O         17.2110   11.3390   15.6090 O.2    61  THR61      -0.2866
     91  CB        15.1130    9.9250   17.8370 C.3    61  THR61       0.1770
     92  OG1       15.1410    8.8530   18.8490 O.3    61  THR61      -0.2211
     93  CG2       14.5200    9.4420   16.5110 C.3    61  THR61       0.0375
     94  N         19.9800   11.7260   15.3650 N.3    64  SER64      -0.1202
     95  CA        20.1490   10.5340   14.5120 C.3    64  SER64       0.2020
     96  C         19.5400   10.6830   13.1290 C.2    64  SER64       0.2619
     97  O         19.7130    9.7540   12.3120 O.2    64  SER64      -0.2717
     98  CB        19.5930    9.3290   15.2610 C.3    64  SER64       0.2103
     99  OG        20.5360    8.8660   16.2170 O.3    64  SER64      -0.2182
    100  N         18.8640   11.7930   12.8950 N.am   65  ILE65      -0.1966
    101  CA        18.2420   12.0560   11.5810 C.3    65  ILE65       0.1712
    102  C         19.2350   12.8770   10.7530 C.2    65  ILE65       0.2458
    103  O         19.5590   14.0190   11.1210 O.2    65  ILE65      -0.2730
    104  CB        16.8310   12.7120   11.7010 C.3    65  ILE65       0.0289
    105  CG1       15.9010   11.6690   12.3780 C.3    65  ILE65       0.0022
    106  CG2       16.2780   13.2190   10.3450 C.3    65  ILE65       0.0023
    107  CD1       14.4730   12.1340   12.7080 C.3    65  ILE65       0.0001
    108  N         19.6770   12.2230    9.6780 N.am   66  PRO66      -0.2727
    109  CA        20.6470   12.8480    8.7690 C.3    66  PRO66       0.1402
    110  C         20.1170   14.2260    8.4130 C.2    66  PRO66       0.2269
    111  O         18.9160   14.4160    8.1500 O.2    66  PRO66      -0.2865
    112  CB        20.8560   11.8400    7.6590 C.3    66  PRO66       0.0296
    113  CG        20.4770   10.5150    8.2670 C.3    66  PRO66       0.0237
    114  CD        19.3240   10.8850    9.2070 C.3    66  PRO66       0.0939
    115  N         17.7920   14.5840    5.9780 N.3    69  PHE69      -0.1241
    116  CA        16.3800   14.2640    6.2550 C.3    69  PHE69       0.1605
    117  C         15.6880   14.9230    7.4270 C.2    69  PHE69       0.2264
    118  O         14.7100   14.3520    7.9760 O.2    69  PHE69      -0.2867
    119  CB        16.2830   12.7240    6.3500 C.3    69  PHE69       0.0534
    120  CG        17.1560   12.0440    5.3390 C.ar   69  PHE69      -0.0203
    121  CD1       16.7960   12.0780    3.9840 C.ar   69  PHE69      -0.0042
    122  CD2       18.3270   11.3940    5.7390 C.ar   69  PHE69      -0.0042
    123  CE1       17.5900   11.4730    3.0250 C.ar   69  PHE69      -0.0003
    124  CE2       19.1370   10.7720    4.7790 C.ar   69  PHE69      -0.0003
    125  CZ        18.7580   10.8170    3.4220 C.ar   69  PHE69      -0.0000
    126  N         11.6120   15.9700    9.2520 N.3    72  LEU72      -0.1231
    127  CA        10.9520   14.9820    8.3820 C.3    72  LEU72       0.1693
    128  C         10.0220   15.8390    7.5360 C.2    72  LEU72       0.2591
    129  O          9.3290   16.6860    8.1340 O.2    72  LEU72      -0.2718
    130  CB        10.3540   13.9520    9.3380 C.3    72  LEU72       0.0284
    131  CG        11.3750   13.1010   10.0810 C.3    72  LEU72       0.0019
    132  CD1       10.6870   12.0610   10.9690 C.3    72  LEU72       0.0001
    133  CD2       12.2530   12.4350    9.0350 C.3    72  LEU72       0.0001
    134  N         10.0080   15.6210    6.2450 N.am   73  LYS73      -0.1980
    135  CA         9.1800   16.3770    5.3030 C.3    73  LYS73       0.1596
    136  C          7.7750   15.8200    5.1630 C.2    73  LYS73       0.2287
    137  O          7.5580   14.6140    4.9450 O.2    73  LYS73      -0.2864
    138  CB         9.9200   16.4300    3.9450 C.3    73  LYS73       0.0298
    139  CG        11.2980   17.0870    4.1100 C.3    73  LYS73       0.0038
    140  CD        12.1960   17.0400    2.8890 C.3    73  LYS73       0.0206
    141  CE        13.6690   17.1170    3.2850 C.3    73  LYS73       0.1093
    142  NZ        14.5570   16.9280    2.1040 N.3    73  LYS73      -0.1314
    143  N          5.5650   16.2800    7.5900 N.3    75  ARG75      -0.1245
    144  CA         5.1250   16.0310    8.9680 C.3    75  ARG75       0.1563
    145  C          5.5900   17.1110    9.9430 C.2    75  ARG75       0.2260
    146  O          6.6530   17.7250    9.7960 O.2    75  ARG75      -0.2867
    147  CB         5.6600   14.7040    9.4990 C.3    75  ARG75       0.0307
    148  CG         5.3590   13.4690    8.6510 C.3    75  ARG75       0.0489
    149  CD         6.3430   12.3700    8.9710 C.3    75  ARG75       0.2205
    150  NE         7.4980   12.5300    8.1380 N.pl3  75  ARG75      -0.0865
    151  CZ         8.4220   11.7730    7.5910 C.cat  75  ARG75       0.5346
    152  NH1        8.6010   10.4910    7.7880 N.pl3  75  ARG75       0.1354
    153  NH2        9.1920   12.3550    6.6710 N.pl3  75  ARG75       0.1354
    154  N          7.9100    8.4200   17.5030 N.3   123  ILE123     -0.1245
    155  CA         8.8790    7.7460   16.6200 C.3   123  ILE123      0.1561
    156  C         10.2060    7.4740   17.3220 C.2   123  ILE123      0.2260
    157  O         11.2300    7.1560   16.6870 O.2   123  ILE123     -0.2867
    158  CB         9.0660    8.5860   15.3150 C.3   123  ILE123      0.0252
    159  CG1        9.9390    9.8380   15.6140 C.3   123  ILE123      0.0019
    160  CG2        7.7670    9.0260   14.6010 C.3   123  ILE123      0.0019
    161  CD1       10.4610   10.6140   14.3620 C.3   123  ILE123      0.0001
    162  N          9.6930    6.4280   24.4500 N.3   129  TYR129     -0.1241
    163  CA         8.8860    5.2240   24.2420 C.3   129  TYR129      0.1605
    164  C          8.2850    4.8440   25.5980 C.2   129  TYR129      0.2264
    165  O          7.1180    4.4490   25.6950 O.2   129  TYR129     -0.2867
    166  CB         9.6960    4.0740   23.6250 C.3   129  TYR129      0.0534
    167  CG         9.8970    4.1210   22.1360 C.ar  129  TYR129     -0.0201
    168  CD1        8.9600    4.6550   21.2540 C.ar  129  TYR129     -0.0009
    169  CD2       11.0550    3.5540   21.5730 C.ar  129  TYR129     -0.0009
    170  CE1        9.1700    4.6520   19.8660 C.ar  129  TYR129      0.0417
    171  CE2       11.2830    3.5370   20.2040 C.ar  129  TYR129      0.0417
    172  CZ        10.3270    4.0840   19.3520 C.ar  129  TYR129      0.1957
    173  OH        10.5870    4.0740   18.0170 O.3   129  TYR129     -0.2866
    174  N          2.6710    0.3030   16.1160 N.3   142  MET142     -0.1245
    175  CA         3.0420    0.0680   14.7200 C.3   142  MET142      0.1570
    176  C          4.4990   -0.4180   14.8450 C.2   142  MET142      0.2261
    177  O          5.3680    0.4620   14.7650 O.2   142  MET142     -0.2867
    178  CB         3.0120    1.2980   13.8340 C.3   142  MET142      0.0387
    179  CG         1.7040    1.9940   13.6700 C.3   142  MET142      0.0595
    180  SD         0.4880    0.7700   13.1040 S.3   142  MET142     -0.1393
    181  CE         0.8760    0.7490   11.3250 C.3   142  MET142      0.0692
    182  N          7.6890   -3.0640   13.6960 N.3   144  THR144     -0.1218
    183  CA         8.4060   -3.8310   12.7030 C.3   144  THR144      0.1862
    184  C          9.2800   -4.7960   13.4840 C.2   144  THR144      0.2287
    185  O         10.0600   -4.3230   14.3190 O.2   144  THR144     -0.2866
    186  CB         9.3140   -2.9940   11.7150 C.3   144  THR144      0.1770
    187  OG1        8.3990   -2.0710   11.0830 O.3   144  THR144     -0.2211
    188  CG2       10.1030   -3.9000   10.7510 C.3   144  THR144      0.0375
@<TRIPOS>BOND
     1    37    36    1
     2    36    35    1
     3    35    34    1
     4    34    33    1
     5    86    85    1
     6    85    84    1
     7   142   141    1
     8    33    30    1
     9    32    31    2
    10   140   141    1
    11   140   139    1
    12    84    83    1
    13   123   125   ar
    14   123   121   ar
    15    31    30    1
    16   125   124   ar
    17    30    29    1
    18    83    82    1
    19   138   139    1
    20   138   135    1
    21   121   120   ar
    22    82    79    1
    23    55    56    1
    24   124   122   ar
    25   137   136    2
    26    38    39    1
    27   136   135    1
    28   135   134    1
    29   120   122   ar
    30   120   119    1
    31    80    81    2
    32    80    79    1
    33    49    50    2
    34    49    48    1
    35    56    59    1
    36    56    57    1
    37    79    78    1
    38    53    51    1
    39   115   116    1
    40    59    60    1
    41    47    48    1
    42    47    40   am
    43   134   128   am
    44   116   119    1
    45   116   117    1
    46    51    48    1
    47    51    52    1
    48    39    40    1
    49    39    42    1
    50    58    57    2
    51    57    67   am
    52    61    60   ar
    53    61    63   ar
    54    40    41    2
    55    78    69   am
    56   153   151    1
    57    60    62   ar
    58    67    68    1
    59    63    65   ar
    60   117   118    2
    61    42    43    1
    62    69    70    2
    63    69    68    1
    64   128   129    2
    65   128   127    1
    66   143   144    1
    67   151   152    1
    68   151   150    2
    69   112   113    1
    70   112   109    1
    71    52    54    1
    72    68    71    1
    73   150   149    1
    74   111   110    2
    75   113   114    1
    76   127   126    1
    77   127   130    1
    78   110   109    1
    79    62    64   ar
    80    65    64   ar
    81    65    66    1
    82   148   149    1
    83   148   147    1
    84    71    72    1
    85   109   108    1
    86    43    44    1
    87   144   147    1
    88   144   145    1
    89   133   131    1
    90   114   108    1
    91   130   131    1
    92    74    72   ar
    93    74    76   ar
    94    44    45   ar
    95    44    46   ar
    96   108   102   am
    97    72    73   ar
    98   146   145    2
    99   131   132    1
   100    76    77   ar
   101   106   104    1
   102   188   186    1
   103   102   103    2
   104   102   101    1
   105    73    75   ar
   106   187   186    1
   107   181   180    1
   108   101   104    1
   109   101   100    1
   110    77    75   ar
   111   104   105    1
   112   186   183    1
   113     8     6    1
   114    97    96    2
   115   105   107    1
   116    24    23    2
   117   183   184    1
   118   183   182    1
   119    27    26    1
   120   100    96   am
   121   180   179    1
   122    96    95    1
   123    25    26    1
   124    25    22    1
   125     6     5    1
   126    20    17    1
   127   184   185    2
   128    23    22    1
   129   179   178    1
   130    26    28    1
   131   178   175    1
   132    22    21    1
   133   161   159    1
   134     5     7    1
   135     5     2    1
   136    95    98    1
   137    95    94    1
   138    17    16    1
   139    17    18    1
   140   160   158    1
   141    12    11    2
   142   175   176    1
   143   175   174    1
   144   177   176    2
   145    11    16   am
   146    11    10    1
   147    98    99    1
   148   158   159    1
   149   158   155    1
   150    90    89    2
   151    18    19    2
   152     2     3    1
   153     2     1    1
   154     9     3   am
   155     9    10    1
   156     3     4    2
   157    10    13    1
   158    93    91    1
   159   155   156    1
   160   155   154    1
   161   157   156    2
   162    89    88    1
   163    13    14    1
   164    13    15    1
   165    88    91    1
   166    88    87    1
   167    91    92    1
   168   173   172    1
   169   172   170   ar
   170   172   171   ar
   171   170   168   ar
   172   171   169   ar
   173   168   167   ar
   174   169   167   ar
   175   167   166    1
   176   166   163    1
   177   163   162    1
   178   163   164    1
   179   164   165    2
