@<TRIPOS>MOLECULE
tmp/1dakA00.pdb
 142 136 0 0 0
SMALL
GASTEIGER

@<TRIPOS>ATOM
      1  N          0.2480   25.6830    6.7110 N.3    11  THR11      -0.1203
      2  CA         0.3100   24.7700    7.8610 C.3    11  THR11       0.1994
      3  C          1.0840   23.5650    7.3250 C.2    11  THR11       0.2617
      4  O          1.2240   23.3820    6.1150 O.2    11  THR11      -0.2717
      5  CB        -1.0700   24.3740    8.3900 C.3    11  THR11       0.1784
      6  OG1       -0.9490   23.6000    9.5990 O.3    11  THR11      -0.2211
      7  CG2       -1.8340   23.5380    7.3700 C.3    11  THR11       0.0376
      8  N          1.6820   22.7470    8.1600 N.am   12  GLU12      -0.1979
      9  CA         2.4280   21.5510    7.8120 C.3    12  GLU12       0.1602
     10  C          3.6550   21.7820    6.9510 C.2    12  GLU12       0.2287
     11  O          3.9240   20.9910    6.0520 O.2    12  GLU12      -0.2864
     12  CB         1.4890   20.5210    7.1640 C.3    12  GLU12       0.0415
     13  CG         1.9800   19.0880    7.3140 C.3    12  GLU12       0.1163
     14  CD         1.6690   18.4600    8.6490 C.2    12  GLU12       0.3649
     15  OE1        0.8250   18.9810    9.4050 O.co2  12  GLU12      -0.2457
     16  OE2        2.2620   17.4010    8.9640 O.co2  12  GLU12      -0.2457
     17  N          7.0390   24.9330   10.7830 N.3    15  LYS15      -0.1231
     18  CA         7.1360   25.9950   11.7680 C.3    15  LYS15       0.1693
     19  C          7.6540   25.4210   13.0920 C.2    15  LYS15       0.2592
     20  O          8.5250   26.0080   13.6990 O.2    15  LYS15      -0.2718
     21  CB         5.8430   26.7590   12.0600 C.3    15  LYS15       0.0285
     22  CG         5.2770   27.5650   10.9020 C.3    15  LYS15       0.0035
     23  CD         4.0430   28.3520   11.3150 C.3    15  LYS15       0.0206
     24  CE         2.9020   27.4660   11.7890 C.3    15  LYS15       0.1093
     25  NZ         2.2880   26.7120   10.6570 N.3    15  LYS15      -0.1314
     26  N          7.0990   24.2970   13.5450 N.am   16  THR16      -0.1953
     27  CA         7.4240   23.7440   14.8510 C.3    16  THR16       0.1897
     28  C          8.8400   23.1930   14.8320 C.2    16  THR16       0.2313
     29  O          9.6100   23.5470   15.7250 O.2    16  THR16      -0.2863
     30  CB         6.4000   22.6950   15.3170 C.3    16  THR16       0.1794
     31  OG1        5.1060   23.3440   15.4130 O.3    16  THR16      -0.2208
     32  CG2        6.7420   22.0830   16.6600 C.3    16  THR16       0.0378
     33  N          3.0590   29.1690   22.2180 N.3    37  LYS37      -0.1245
     34  CA         2.0940   28.8000   21.1600 C.3    37  LYS37       0.1561
     35  C          0.7420   29.2110   21.7420 C.2    37  LYS37       0.2260
     36  O          0.0800   28.3790   22.3730 O.2    37  LYS37      -0.2867
     37  CB         2.1460   27.2950   20.9100 C.3    37  LYS37       0.0271
     38  CG         1.1130   26.7190   19.9540 C.3    37  LYS37       0.0035
     39  CD         1.5650   26.7210   18.5010 C.3    37  LYS37       0.0206
     40  CE         0.4900   26.0950   17.6080 C.3    37  LYS37       0.1093
     41  NZ         0.9180   26.0500   16.1690 N.3    37  LYS37      -0.1314
     42  N         -3.6660   26.8450   19.8200 N.3    40  ALA40      -0.1231
     43  CA        -3.3840   25.5630   19.1890 C.3    40  ALA40       0.1694
     44  C         -4.6690   24.7540   19.0050 C.2    40  ALA40       0.2592
     45  O         -5.5250   24.7450   19.8790 O.2    40  ALA40      -0.2718
     46  CB        -2.3990   24.7660   20.0500 C.3    40  ALA40       0.0304
     47  N         -4.7940   24.1050   17.8590 N.am   41  SER41      -0.1952
     48  CA        -5.9270   23.2450   17.5460 C.3    41  SER41       0.1924
     49  C         -5.3610   21.8950   17.0970 C.2    41  SER41       0.2314
     50  O         -4.3750   21.8890   16.3490 O.2    41  SER41      -0.2863
     51  CB        -6.8440   23.8410   16.4880 C.3    41  SER41       0.2116
     52  OG        -6.1380   24.1900   15.3040 O.3    41  SER41      -0.2180
     53  N         -1.3730   19.8760   23.2530 N.3    52  ASN52      -0.1240
     54  CA        -1.0190   19.9660   21.8340 C.3    52  ASN52       0.1653
     55  C          0.4540   19.6320   21.6230 C.2    52  ASN52       0.2266
     56  O          1.2740   20.1160   22.3890 O.2    52  ASN52      -0.2867
     57  CB        -1.3210   21.3760   21.3340 C.3    52  ASN52       0.1155
     58  CG        -0.7530   21.7030   19.9710 C.2    52  ASN52       0.2627
     59  OD1        0.3550   22.2410   19.8300 O.2    52  ASN52      -0.2716
     60  ND2       -1.5110   21.3680   18.9470 N.am   52  ASN52      -0.0877
     61  N          2.6430   20.6150   19.2490 N.3    54  ASP54      -0.1239
     62  CA         3.4980   21.7610   18.9600 C.3    54  ASP54       0.1674
     63  C          3.9070   22.4220   20.2730 C.2    54  ASP54       0.2266
     64  O          5.0820   22.7000   20.5280 O.2    54  ASP54      -0.2867
     65  CB         2.8160   22.8460   18.1250 C.3    54  ASP54       0.1410
     66  CG         2.5530   22.5060   16.6850 C.2    54  ASP54       0.3668
     67  OD1        2.6580   21.3280   16.2890 O.co2  54  ASP54      -0.2456
     68  OD2        2.2660   23.4630   15.9240 O.co2  54  ASP54      -0.2456
     69  N         -8.3910   19.5650   15.0510 N.3    79  PRO79      -0.2102
     70  CA        -7.4280   20.1910   14.1630 C.3    79  PRO79       0.1504
     71  C         -8.0390   20.9190   12.9810 C.2    79  PRO79       0.2576
     72  O         -7.8370   20.5620   11.8130 O.2    79  PRO79      -0.2718
     73  CB        -6.5620   19.0150   13.7160 C.3    79  PRO79       0.0282
     74  CG        -7.4870   17.8490   13.7090 C.3    79  PRO79       0.0208
     75  CD        -8.4760   18.0950   14.8200 C.3    79  PRO79       0.0893
     76  N         -8.6830   22.0460   13.2470 N.am   80  THR80      -0.1939
     77  CA        -9.2980   22.8820   12.2270 C.3    80  THR80       0.2028
     78  C         -8.8770   24.3310   12.4170 C.2    80  THR80       0.2643
     79  O         -8.0040   24.5970   13.2630 O.2    80  THR80      -0.2714
     80  CB       -10.8360   22.7380   12.2780 C.3    80  THR80       0.1808
     81  OG1      -11.4060   23.4090   11.1430 O.3    80  THR80      -0.2208
     82  CG2      -11.3940   23.3530   13.5480 C.3    80  THR80       0.0379
     83  N         -9.4510   25.2940   11.7070 N.am   81  SER81      -0.1936
     84  CA        -9.0940   26.7000   11.9540 C.3    81  SER81       0.2040
     85  C         -9.5650   27.0930   13.3490 C.2    81  SER81       0.2485
     86  O        -10.6860   26.7780   13.7570 O.2    81  SER81      -0.2729
     87  CB        -9.7600   27.5700   10.8900 C.3    81  SER81       0.2129
     88  OG        -9.3410   28.9100   10.9750 O.3    81  SER81      -0.2179
     89  N         -8.7180   27.7720   14.1140 N.am   82  PRO82      -0.2726
     90  CA        -9.0500   28.1590   15.4810 C.3    82  PRO82       0.1402
     91  C        -10.3940   28.8410   15.6110 C.2    82  PRO82       0.2269
     92  O        -11.1800   28.5170   16.5160 O.2    82  PRO82      -0.2865
     93  CB        -7.8910   29.0410   15.9190 C.3    82  PRO82       0.0296
     94  CG        -6.7380   28.5680   15.0910 C.3    82  PRO82       0.0237
     95  CD        -7.3360   28.1630   13.7610 C.3    82  PRO82       0.0939
     96  N          5.1090   30.8400   18.2210 N.3   115  GLU115     -0.1245
     97  CA         4.7440   30.1220   17.0010 C.3   115  GLU115      0.1567
     98  C          3.2700   30.4140   16.6990 C.2   115  GLU115      0.2260
     99  O          2.4410   30.2900   17.6010 O.2   115  GLU115     -0.2867
    100  CB         4.9580   28.6060   17.0820 C.3   115  GLU115      0.0388
    101  CG         4.6650   27.9040   15.7650 C.3   115  GLU115      0.1160
    102  CD         4.5320   26.4050   15.7640 C.2   115  GLU115      0.3649
    103  OE1        5.0610   25.7180   16.6580 O.co2 115  GLU115     -0.2457
    104  OE2        3.9050   25.8250   14.8300 O.co2 115  GLU115     -0.2457
    105  N         -0.2740   29.7830   14.2060 N.3   117  ALA117     -0.1231
    106  CA        -1.0220   28.5750   13.8520 C.3   117  ALA117      0.1694
    107  C         -1.3800   28.7340   12.3700 C.2   117  ALA117      0.2593
    108  O         -1.7800   29.8180   11.9440 O.2   117  ALA117     -0.2718
    109  CB        -2.2430   28.3690   14.7150 C.3   117  ALA117      0.0304
    110  N         -1.1280   27.6840   11.6090 N.am  118  GLY118     -0.1942
    111  CA        -1.3390   27.7450   10.1620 C.3   118  GLY118      0.2014
    112  C         -0.4160   28.8000    9.5710 C.2   118  GLY118      0.2639
    113  O          0.7470   28.9380    9.9810 O.2   118  GLY118     -0.2714
    114  N         -0.9180   29.5400    8.5980 N.am  119  GLY119     -0.1954
    115  CA        -0.1770   30.5970    7.9380 C.3   119  GLY119      0.1869
    116  C         -0.4920   31.9720    8.5120 C.2   119  GLY119      0.2309
    117  O         -1.0740   32.1170    9.5890 O.2   119  GLY119     -0.2863
    118  N         -2.6180   34.5720    7.7830 N.3   121  PHE121     -0.1227
    119  CA        -3.9630   35.0840    8.0130 C.3   121  PHE121      0.1736
    120  C         -4.9160   34.1360    8.7000 C.2   121  PHE121      0.2596
    121  O         -6.1400   34.3460    8.6360 O.2   121  PHE121     -0.2718
    122  CB        -4.5170   35.5390    6.6560 C.3   121  PHE121      0.0547
    123  CG        -4.1420   36.9250    6.2170 C.ar  121  PHE121     -0.0202
    124  CD1       -4.2860   38.0170    7.0550 C.ar  121  PHE121     -0.0042
    125  CD2       -3.6600   37.1300    4.9280 C.ar  121  PHE121     -0.0042
    126  CE1       -3.9480   39.2860    6.6240 C.ar  121  PHE121     -0.0003
    127  CE2       -3.3190   38.3960    4.4940 C.ar  121  PHE121     -0.0003
    128  CZ        -3.4630   39.4820    5.3430 C.ar  121  PHE121     -0.0000
    129  N         -4.4560   33.1170    9.4020 N.am  122  THR122     -0.1939
    130  CA        -5.3750   32.2320   10.1240 C.3   122  THR122      0.2013
    131  C         -6.3280   33.0000   11.0220 C.2   122  THR122      0.2484
    132  O         -5.9020   33.7040   11.9380 O.2   122  THR122     -0.2729
    133  CB        -4.5070   31.2940   10.9910 C.3   122  THR122      0.1807
    134  OG1       -3.7420   30.4770   10.0950 O.3   122  THR122     -0.2208
    135  CG2       -5.3800   30.4070   11.8650 C.3   122  THR122      0.0379
    136  N         -7.6360   32.8050   10.8500 N.am  123  PRO123     -0.2726
    137  CA        -8.6150   33.5070   11.6690 C.3   123  PRO123      0.1402
    138  C         -8.6940   33.0000   13.1050 C.2   123  PRO123      0.2269
    139  O         -8.6100   31.7940   13.3230 O.2   123  PRO123     -0.2865
    140  CB        -9.9380   33.2540   10.9550 C.3   123  PRO123      0.0296
    141  CG        -9.5470   32.9040    9.5430 C.3   123  PRO123      0.0237
    142  CD        -8.2800   32.0720    9.7320 C.3   123  PRO123      0.0939
@<TRIPOS>BOND
     1   127   125   ar
     2   127   128   ar
     3   125   123   ar
     4   128   126   ar
     5    11    10    2
     6     4     3    2
     7   123   122    1
     8   123   124   ar
     9   126   124   ar
    10   122   119    1
    11     1     2    1
    12    10     9    1
    13    12    13    1
    14    12     9    1
    15    13    14    1
    16     3     2    1
    17     3     8   am
    18     7     5    1
    19   118   119    1
    20     9     8    1
    21     2     5    1
    22   115   116    1
    23   115   114    1
    24   119   120    1
    25     5     6    1
    26   116   117    2
    27   114   112   am
    28   121   120    2
    29    14    16   ar
    30    14    15   ar
    31   120   129   am
    32   129   130    1
    33   141   142    1
    34   141   140    1
    35   112   113    2
    36   112   111    1
    37   142   136    1
    38   134   133    1
    39   130   133    1
    40   130   131    1
    41   111   110    1
    42    25    24    1
    43    17    18    1
    44   136   131   am
    45   136   137    1
    46    87    88    1
    47    87    84    1
    48    22    23    1
    49    22    21    1
    50   140   137    1
    51   133   135    1
    52   131   132    2
    53    81    80    1
    54    23    24    1
    55   110   107   am
    56   137   138    1
    57    83    84    1
    58    83    78   am
    59    18    21    1
    60    18    19    1
    61    72    71    2
    62   108   107    2
    63    84    85    1
    64    77    80    1
    65    77    78    1
    66    77    76    1
    67    80    82    1
    68   107   106    1
    69    78    79    2
    70    71    76   am
    71    71    70    1
    72    19    26   am
    73    19    20    2
    74   138   139    2
    75    85    86    2
    76    85    89   am
    77    26    27    1
    78    74    73    1
    79    74    75    1
    80    73    70    1
    81    95    89    1
    82    95    94    1
    83   106   105    1
    84   106   109    1
    85    89    90    1
    86    70    69    1
    87    75    69    1
    88   104   102   ar
    89    28    27    1
    90    28    29    2
    91    27    30    1
    92    94    93    1
    93    52    51    1
    94    30    31    1
    95    30    32    1
    96    90    91    1
    97    90    93    1
    98    91    92    2
    99   102   101    1
   100   102   103   ar
   101   101   100    1
   102    68    66   ar
   103    41    40    1
   104    67    66   ar
   105    50    49    2
   106    51    48    1
   107    66    65    1
   108    98    97    1
   109    98    99    2
   110    97   100    1
   111    97    96    1
   112    49    48    1
   113    48    47    1
   114    40    39    1
   115    47    44   am
   116    65    62    1
   117    39    38    1
   118    60    58   am
   119    62    61    1
   120    62    63    1
   121    44    43    1
   122    44    45    2
   123    43    42    1
   124    43    46    1
   125    59    58    2
   126    38    37    1
   127    58    57    1
   128    63    64    2
   129    37    34    1
   130    34    35    1
   131    34    33    1
   132    57    54    1
   133    55    54    1
   134    55    56    2
   135    35    36    2
   136    54    53    1
