@<TRIPOS>MOLECULE
tmp/1damA01.pdb
 130 127 0 0 0
SMALL
GASTEIGER

@<TRIPOS>ATOM
      1  N          2.4950   27.9560    5.0600 N.3    10  ASP10      -0.1225
      2  CA         1.2460   27.1650    5.2100 C.3    10  ASP10       0.1805
      3  C          1.3520   26.3720    6.5100 C.2    10  ASP10       0.2598
      4  O          2.3450   26.4680    7.2420 O.2    10  ASP10      -0.2718
      5  CB         1.1400   26.1690    4.0390 C.3    10  ASP10       0.1424
      6  CG        -0.2510   25.5530    3.8830 C.2    10  ASP10       0.3668
      7  OD1       -1.2040   25.9010    4.6770 O.co2  10  ASP10      -0.2456
      8  OD2       -0.4690   24.6840    2.9530 O.co2  10  ASP10      -0.2456
      9  N          0.3280   25.6050    6.8210 N.am   11  THR11      -0.1953
     10  CA         0.4390   24.6780    7.9490 C.3    11  THR11       0.1897
     11  C          1.2260   23.4900    7.3880 C.2    11  THR11       0.2313
     12  O          1.3010   23.3150    6.1640 O.2    11  THR11      -0.2863
     13  CB        -0.9430   24.2570    8.4770 C.3    11  THR11       0.1794
     14  OG1       -0.7980   23.5310    9.6960 O.3    11  THR11      -0.2208
     15  CG2       -1.7040   23.3530    7.5060 C.3    11  THR11       0.0378
     16  N          3.0360   29.2230   22.2480 N.3    37  LYS37      -0.1245
     17  CA         2.0430   28.8270   21.2240 C.3    37  LYS37       0.1561
     18  C          0.6980   29.2190   21.8230 C.2    37  LYS37       0.2260
     19  O         -0.0080   28.4400   22.4750 O.2    37  LYS37      -0.2867
     20  CB         2.1810   27.3380   20.9310 C.3    37  LYS37       0.0271
     21  CG         1.1300   26.7220   20.0050 C.3    37  LYS37       0.0035
     22  CD         1.6030   26.5900   18.5620 C.3    37  LYS37       0.0206
     23  CE         0.4870   26.0700   17.6540 C.3    37  LYS37       0.1093
     24  NZ         0.9010   26.0350   16.2130 N.3    37  LYS37      -0.1314
     25  N         -3.7090   26.9260   19.8560 N.3    40  ALA40      -0.1231
     26  CA        -3.4410   25.6210   19.2610 C.3    40  ALA40       0.1694
     27  C         -4.7060   24.7890   19.1010 C.2    40  ALA40       0.2593
     28  O         -5.5970   24.7720   19.9550 O.2    40  ALA40      -0.2718
     29  CB        -2.4350   24.8880   20.1650 C.3    40  ALA40       0.0304
     30  N         -4.8090   24.0580   17.9930 N.am   41  SER41      -0.1938
     31  CA        -5.9380   23.1790   17.7300 C.3    41  SER41       0.2055
     32  C         -5.3720   21.8530   17.2150 C.2    41  SER41       0.2643
     33  O         -4.3080   21.8540   16.5930 O.2    41  SER41      -0.2714
     34  CB        -6.9680   23.7760   16.7840 C.3    41  SER41       0.2130
     35  OG        -6.4560   23.8800   15.4730 O.3    41  SER41      -0.2179
     36  N         -6.0550   20.7660   17.5390 N.am   42  GLY42      -0.1954
     37  CA        -5.5620   19.4330   17.1270 C.3    42  GLY42       0.1869
     38  C         -4.7430   18.9750   18.3520 C.2    42  GLY42       0.2309
     39  O         -3.5190   19.0830   18.3540 O.2    42  GLY42      -0.2863
     40  N         -1.4890   19.9960   23.3000 N.3    52  ASN52      -0.1240
     41  CA        -1.1410   20.0160   21.8680 C.3    52  ASN52       0.1653
     42  C          0.3300   19.7060   21.6600 C.2    52  ASN52       0.2266
     43  O          1.2000   20.2100   22.3680 O.2    52  ASN52      -0.2867
     44  CB        -1.4800   21.4080   21.3210 C.3    52  ASN52       0.1155
     45  CG        -0.9550   21.6830   19.9280 C.2    52  ASN52       0.2627
     46  OD1       -1.6390   21.4090   18.9280 O.2    52  ASN52      -0.2716
     47  ND2        0.2220   22.2670   19.8520 N.am   52  ASN52      -0.0877
     48  N          2.5630   20.6990   19.2910 N.3    54  ASP54      -0.1239
     49  CA         3.4610   21.8150   19.0310 C.3    54  ASP54       0.1674
     50  C          3.8320   22.4760   20.3600 C.2    54  ASP54       0.2266
     51  O          5.0020   22.7350   20.6100 O.2    54  ASP54      -0.2867
     52  CB         2.8590   22.9350   18.1690 C.3    54  ASP54       0.1410
     53  CG         2.5820   22.5530   16.7410 C.2    54  ASP54       0.3668
     54  OD1        2.7040   21.3580   16.4350 O.co2  54  ASP54      -0.2456
     55  OD2        2.2630   23.4520   15.9230 O.co2  54  ASP54      -0.2456
     56  N         -8.4270   19.7510   15.1390 N.3    79  PRO79      -0.2102
     57  CA        -7.4620   20.4250   14.2960 C.3    79  PRO79       0.1504
     58  C         -8.0780   21.1930   13.1360 C.2    79  PRO79       0.2576
     59  O         -7.7420   20.9380   11.9690 O.2    79  PRO79      -0.2718
     60  CB        -6.5880   19.2830   13.7720 C.3    79  PRO79       0.0282
     61  CG        -7.5200   18.1260   13.7020 C.3    79  PRO79       0.0208
     62  CD        -8.4390   18.2830   14.8910 C.3    79  PRO79       0.0893
     63  N         -8.9510   22.1490   13.4210 N.am   80  THR80      -0.1939
     64  CA        -9.5610   22.9780   12.3880 C.3    80  THR80       0.2028
     65  C         -9.1910   24.4350   12.6480 C.2    80  THR80       0.2643
     66  O         -8.3880   24.6740   13.5550 O.2    80  THR80      -0.2714
     67  CB       -11.0780   22.8020   12.2980 C.3    80  THR80       0.1808
     68  OG1      -11.5540   23.5720   11.1820 O.3    80  THR80      -0.2208
     69  CG2      -11.7830   23.2950   13.5550 C.3    80  THR80       0.0379
     70  N         -9.6560   25.3780   11.8300 N.am   81  SER81      -0.1936
     71  CA        -9.2730   26.7710   12.0870 C.3    81  SER81       0.2040
     72  C         -9.7280   27.1930   13.4800 C.2    81  SER81       0.2485
     73  O        -10.8560   26.9040   13.8720 O.2    81  SER81      -0.2729
     74  CB        -9.9700   27.6600   11.0500 C.3    81  SER81       0.2129
     75  OG        -9.5040   28.9850   11.1370 O.3    81  SER81      -0.2179
     76  N         -8.8820   27.9030   14.2190 N.am   82  PRO82      -0.2715
     77  CA        -9.2000   28.3790   15.5560 C.3    82  PRO82       0.1536
     78  C        -10.5410   29.0690   15.6790 C.2    82  PRO82       0.2598
     79  O        -11.3130   28.7600   16.6050 O.2    82  PRO82      -0.2715
     80  CB        -8.0520   29.3460   15.8760 C.3    82  PRO82       0.0310
     81  CG        -6.8930   28.7380   15.1520 C.3    82  PRO82       0.0237
     82  CD        -7.4950   28.2570   13.8350 C.3    82  PRO82       0.0939
     83  N        -10.8780   29.9910   14.7700 N.am   83  HIS83      -0.1974
     84  CA       -12.1850   30.6480   14.8640 C.3    83  HIS83       0.1656
     85  C        -13.3650   29.6800   14.8200 C.2    83  HIS83       0.2291
     86  O        -14.3680   29.9130   15.5140 O.2    83  HIS83      -0.2864
     87  CB       -12.3190   31.7370   13.8030 C.3    83  HIS83       0.0771
     88  CG       -12.5940   31.2670   12.4140 C.ar   83  HIS83       0.0820
     89  ND1      -11.7790   30.4210   11.7010 N.ar   83  HIS83      -0.2267
     90  CD2      -13.6560   31.5690   11.6150 C.ar   83  HIS83       0.1154
     91  CE1      -12.3240   30.2240   10.5070 C.ar   83  HIS83       0.1986
     92  NE2      -13.4530   30.9040   10.4290 N.ar   83  HIS83      -0.2212
     93  N         -0.2290   29.7350   14.1790 N.3   117  ALA117     -0.1231
     94  CA        -0.9980   28.5240   13.8690 C.3   117  ALA117      0.1694
     95  C         -1.3840   28.6510   12.3980 C.2   117  ALA117      0.2593
     96  O         -1.7450   29.7470   11.9650 O.2   117  ALA117     -0.2718
     97  CB        -2.2030   28.4080   14.7760 C.3   117  ALA117      0.0304
     98  N         -1.1460   27.5930   11.6230 N.am  118  GLY118     -0.1942
     99  CA        -1.4630   27.7100   10.1910 C.3   118  GLY118      0.2014
    100  C         -0.5040   28.7200    9.5640 C.2   118  GLY118      0.2639
    101  O          0.6680   28.8500    9.9390 O.2   118  GLY118     -0.2714
    102  N         -1.0330   29.4470    8.5900 N.am  119  GLY119     -0.1954
    103  CA        -0.2670   30.4720    7.8910 C.3   119  GLY119      0.1869
    104  C         -0.5540   31.8490    8.4940 C.2   119  GLY119      0.2309
    105  O         -1.2140   31.9770    9.5270 O.2   119  GLY119     -0.2863
    106  N         -2.5710   34.4270    7.8780 N.3   121  PHE121     -0.1227
    107  CA        -3.8890   35.0080    8.1310 C.3   121  PHE121      0.1736
    108  C         -4.8780   34.1230    8.8400 C.2   121  PHE121      0.2596
    109  O         -6.1020   34.3670    8.8080 O.2   121  PHE121     -0.2718
    110  CB        -4.2870   35.5130    6.7680 C.3   121  PHE121      0.0547
    111  CG        -4.0080   36.8720    6.2630 C.ar  121  PHE121     -0.0202
    112  CD1       -4.1680   38.0040    7.0320 C.ar  121  PHE121     -0.0042
    113  CD2       -3.5760   36.9940    4.9390 C.ar  121  PHE121     -0.0042
    114  CE1       -3.9020   39.2610    6.5000 C.ar  121  PHE121     -0.0003
    115  CE2       -3.3030   38.2440    4.4160 C.ar  121  PHE121     -0.0003
    116  CZ        -3.4680   39.3720    5.1980 C.ar  121  PHE121     -0.0000
    117  N         -4.4470   33.1590    9.6320 N.am  122  THR122     -0.1939
    118  CA        -5.4090   32.3120   10.3490 C.3   122  THR122      0.2013
    119  C         -6.3670   33.0790   11.2280 C.2   122  THR122      0.2484
    120  O         -5.9680   33.7890   12.1520 O.2   122  THR122     -0.2729
    121  CB        -4.5570   31.3300   11.1900 C.3   122  THR122      0.1807
    122  OG1       -3.7120   30.6340   10.2650 O.3   122  THR122     -0.2208
    123  CG2       -5.4390   30.3460   11.9230 C.3   122  THR122      0.0379
    124  N         -7.6740   32.9260   11.0060 N.am  123  PRO123     -0.2726
    125  CA        -8.6860   33.6170   11.7760 C.3   123  PRO123      0.1402
    126  C         -8.7890   33.0530   13.1920 C.2   123  PRO123      0.2269
    127  O         -8.7160   31.8360   13.3900 O.2   123  PRO123     -0.2865
    128  CB        -9.9940   33.3860   11.0260 C.3   123  PRO123      0.0296
    129  CG        -9.5400   33.0120    9.6470 C.3   123  PRO123      0.0237
    130  CD        -8.2780   32.1870    9.8720 C.3   123  PRO123      0.0939
@<TRIPOS>BOND
     1     8     6   ar
     2     6     5    1
     3     6     7   ar
     4     5     2    1
     5   115   113   ar
     6   115   116   ar
     7   113   111   ar
     8     1     2    1
     9   116   114   ar
    10     2     3    1
    11    12    11    2
    12   111   110    1
    13   111   112   ar
    14   114   112   ar
    15     3     9   am
    16     3     4    2
    17   110   107    1
    18     9    10    1
    19    11    10    1
    20    15    13    1
    21   106   107    1
    22   103   104    1
    23   103   102    1
    24    10    13    1
    25   107   108    1
    26    13    14    1
    27   104   105    2
    28   102   100   am
    29   109   108    2
    30   108   117   am
    31   100   101    2
    32   100    99    1
    33   117   118    1
    34   129   130    1
    35   129   128    1
    36   130   124    1
    37    99    98    1
    38   122   121    1
    39   118   121    1
    40   118   119    1
    41    92    91   ar
    42    92    90   ar
    43    91    89   ar
    44   124   119   am
    45   124   125    1
    46   128   125    1
    47    74    75    1
    48    74    71    1
    49    68    67    1
    50   121   123    1
    51   119   120    2
    52    90    88   ar
    53    98    95   am
    54    89    88   ar
    55   125   126    1
    56    70    71    1
    57    70    65   am
    58    96    95    2
    59    59    58    2
    60    71    72    1
    61    67    64    1
    62    67    69    1
    63    64    65    1
    64    64    63    1
    65    95    94    1
    66    88    87    1
    67    65    66    2
    68    58    63   am
    69    58    57    1
    70   126   127    2
    71    72    73    2
    72    72    76   am
    73    61    60    1
    74    61    62    1
    75    60    57    1
    76    87    84    1
    77    82    76    1
    78    82    81    1
    79    94    93    1
    80    94    97    1
    81    76    77    1
    82    57    56    1
    83    83    84    1
    84    83    78   am
    85    85    84    1
    86    85    86    2
    87    62    56    1
    88    81    80    1
    89    35    34    1
    90    77    78    1
    91    77    80    1
    92    78    79    2
    93    55    53   ar
    94    24    23    1
    95    54    53   ar
    96    33    32    2
    97    53    52    1
    98    34    31    1
    99    37    36    1
   100    37    38    1
   101    32    36   am
   102    32    31    1
   103    23    22    1
   104    31    30    1
   105    30    27   am
   106    52    49    1
   107    38    39    2
   108    22    21    1
   109    46    45    2
   110    49    48    1
   111    49    50    1
   112    27    26    1
   113    27    28    2
   114    26    25    1
   115    26    29    1
   116    47    45   am
   117    45    44    1
   118    21    20    1
   119    50    51    2
   120    20    17    1
   121    17    18    1
   122    17    16    1
   123    44    41    1
   124    42    41    1
   125    42    43    2
   126    18    19    2
   127    41    40    1
