@<TRIPOS>MOLECULE
tmp/1dapB00.pdb
 206 199 0 0 0
SMALL
GASTEIGER

@<TRIPOS>ATOM
      1  N         23.0090   19.0650   33.7410 N.3    10  GLY10      -0.1210
      2  CA        22.2270   19.2300   34.9810 C.3    10  GLY10       0.1956
      3  C         20.8860   18.5500   34.7080 C.2    10  GLY10       0.2612
      4  O         20.1810   18.8840   33.7490 O.2    10  GLY10      -0.2717
      5  N         20.5740   17.4810   35.4050 N.am   11  TYR11      -0.1962
      6  CA        19.3750   16.8040   34.9820 C.3    11  TYR11       0.1771
      7  C         18.3260   16.8880   36.0100 C.2    11  TYR11       0.2620
      8  O         17.9810   15.9120   36.5970 O.2    11  TYR11      -0.2715
      9  CB        19.6890   15.3490   34.6930 C.3    11  TYR11       0.0574
     10  CG        18.5950   14.6180   33.9700 C.ar   11  TYR11      -0.0198
     11  CD1       18.1890   15.0140   32.6930 C.ar   11  TYR11      -0.0009
     12  CD2       17.9590   13.5050   34.5660 C.ar   11  TYR11      -0.0009
     13  CE1       17.1800   14.3170   32.0220 C.ar   11  TYR11       0.0417
     14  CE2       16.9320   12.8170   33.9150 C.ar   11  TYR11       0.0417
     15  CZ        16.5550   13.2320   32.6460 C.ar   11  TYR11       0.1957
     16  OH        15.5770   12.5240   32.0170 O.3    11  TYR11      -0.2866
     17  N         17.8960   18.0750   36.3550 N.am   12  GLY12      -0.1940
     18  CA        16.9580   18.2220   37.4600 C.3    12  GLY12       0.2014
     19  C         15.6310   18.5010   36.7440 C.2    12  GLY12       0.2639
     20  O         15.4630   18.1070   35.5750 O.2    12  GLY12      -0.2714
     21  N         14.6930   19.1770   37.4100 N.am   13  ASN13      -0.1958
     22  CA        13.4330   19.5580   36.7620 C.3    13  ASN13       0.1819
     23  C         13.5660   20.2520   35.3940 C.2    13  ASN13       0.2621
     24  O         12.9280   19.8570   34.3950 O.2    13  ASN13      -0.2715
     25  CB        12.6640   20.4590   37.6980 C.3    13  ASN13       0.1195
     26  CG        12.1590   19.7320   38.9040 C.2    13  ASN13       0.2630
     27  OD1       11.5000   18.6720   38.7970 O.2    13  ASN13      -0.2716
     28  ND2       12.4230   20.3160   40.0960 N.am   13  ASN13      -0.0877
     29  N         14.3860   21.2990   35.3380 N.am   14  LEU14      -0.1977
     30  CA        14.5870   21.9840   34.0650 C.3    14  LEU14       0.1596
     31  C         15.1590   21.0120   33.0170 C.2    14  LEU14       0.2287
     32  O         14.7030   20.9560   31.8730 O.2    14  LEU14      -0.2864
     33  CB        15.5170   23.1910   34.2570 C.3    14  LEU14       0.0297
     34  CG        15.6800   24.1650   33.0720 C.3    14  LEU14       0.0022
     35  CD1       14.3290   24.6910   32.6930 C.3    14  LEU14       0.0001
     36  CD2       16.5630   25.3420   33.3980 C.3    14  LEU14       0.0001
     37  N         26.0180   14.8190   33.3970 N.3    35  SER35      -0.1202
     38  CA        25.4710   14.8920   34.7540 C.3    35  SER35       0.2020
     39  C         26.5480   14.5320   35.7780 C.2    35  SER35       0.2619
     40  O         27.4340   13.7380   35.4980 O.2    35  SER35      -0.2717
     41  CB        24.3100   13.8870   34.8990 C.3    35  SER35       0.2103
     42  OG        23.6990   13.9580   36.1920 O.3    35  SER35      -0.2182
     43  N         26.3890   15.0230   37.0040 N.am   36  ARG36      -0.1965
     44  CA        27.2590   14.6300   38.1050 C.3    36  ARG36       0.1729
     45  C         26.8790   13.2320   38.6560 C.2    36  ARG36       0.2616
     46  O         27.5480   12.7370   39.5680 O.2    36  ARG36      -0.2715
     47  CB        27.1020   15.6370   39.2360 C.3    36  ARG36       0.0348
     48  CG        27.8070   16.9540   38.9320 C.3    36  ARG36       0.0492
     49  CD        27.3640   18.0020   39.8910 C.3    36  ARG36       0.2205
     50  NE        26.0060   18.4890   39.6290 N.pl3  36  ARG36      -0.0865
     51  CZ        25.4900   19.6460   40.0820 C.cat  36  ARG36       0.5346
     52  NH1       26.2160   20.4210   40.9100 N.pl3  36  ARG36       0.1354
     53  NH2       24.2350   20.0250   39.7190 N.pl3  36  ARG36       0.1354
     54  N         25.7270   12.7030   38.2270 N.am   37  ARG37      -0.1977
     55  CA        25.2150   11.4650   38.7660 C.3    37  ARG37       0.1597
     56  C         25.4090   10.3610   37.7580 C.2    37  ARG37       0.2287
     57  O         25.6390   10.6160   36.5900 O.2    37  ARG37      -0.2864
     58  CB        23.7750   11.6500   39.1760 C.3    37  ARG37       0.0334
     59  CG        23.6440   12.3400   40.4820 C.3    37  ARG37       0.0492
     60  CD        22.1910   12.7590   40.8230 C.3    37  ARG37       0.2205
     61  NE        21.6360   13.6810   39.8220 N.pl3  37  ARG37      -0.0865
     62  CZ        20.4300   13.5520   39.2820 C.cat  37  ARG37       0.5346
     63  NH1       19.5780   12.6300   39.7130 N.pl3  37  ARG37       0.1354
     64  NH2       20.0740   14.3920   38.3400 N.pl3  37  ARG37       0.1354
     65  N         21.5940   23.5480   32.7840 N.3    65  CYS65      -0.1221
     66  CA        20.4240   23.4640   33.6390 C.3    65  CYS65       0.1808
     67  C         20.7480   23.1230   35.0980 C.2    65  CYS65       0.2601
     68  O         19.9230   22.4970   35.8010 O.2    65  CYS65      -0.2717
     69  CB        19.4340   22.4310   33.0750 C.3    65  CYS65       0.0970
     70  SG        19.0530   22.5670   31.2940 S.3    65  CYS65      -0.0800
     71  N         21.8960   23.6070   35.5790 N.am   66  MET66      -0.1965
     72  CA        22.2540   23.4600   37.0240 C.3    66  MET66       0.1736
     73  C         21.6980   24.6210   37.8590 C.2    66  MET66       0.2617
     74  O         21.0470   25.4750   37.2790 O.2    66  MET66      -0.2715
     75  CB        23.7390   23.1400   37.2910 C.3    66  MET66       0.0427
     76  CG        24.6930   24.0770   36.5700 C.3    66  MET66       0.0599
     77  SD        24.8770   23.6980   34.8450 S.3    66  MET66      -0.1393
     78  CE        26.1110   24.7740   34.1640 C.3    66  MET66       0.0692
     79  N         21.7690   24.5000   39.1980 N.am   67  GLY67      -0.1940
     80  CA        21.1390   25.4300   40.1470 C.3    67  GLY67       0.2014
     81  C         21.7940   26.7810   40.0620 C.2    67  GLY67       0.2640
     82  O         22.9830   26.8620   39.8100 O.2    67  GLY67      -0.2714
     83  N         21.0040   27.8420   40.1740 N.am   68  SER68      -0.1935
     84  CA        21.4930   29.2120   40.0090 C.3    68  SER68       0.2055
     85  C         22.1490   29.5940   41.3110 C.2    68  SER68       0.2642
     86  O         23.2510   30.1370   41.2980 O.2    68  SER68      -0.2714
     87  CB        20.3500   30.1980   39.6970 C.3    68  SER68       0.2130
     88  OG        19.9090   30.1340   38.3130 O.3    68  SER68      -0.2179
     89  N         21.4550   29.3480   42.4280 N.am   69  ALA69      -0.1977
     90  CA        21.9710   29.6850   43.7440 C.3    69  ALA69       0.1597
     91  C         23.4440   29.3330   43.9360 C.2    69  ALA69       0.2287
     92  O         24.2030   30.1730   44.3590 O.2    69  ALA69      -0.2864
     93  CB        21.1540   29.0600   44.8390 C.3    69  ALA69       0.0319
     94  N         19.5610   29.9440   32.2500 N.3    88  THR88      -0.1218
     95  CA        18.4340   30.6860   32.7570 C.3    88  THR88       0.1862
     96  C         18.7710   31.3220   34.1040 C.2    88  THR88       0.2287
     97  O         17.8990   31.4790   34.9530 O.2    88  THR88      -0.2866
     98  CB        17.1900   29.8010   32.8650 C.3    88  THR88       0.1770
     99  OG1       17.2820   28.9180   34.0030 O.3    88  THR88      -0.2211
    100  CG2       17.0740   28.9920   31.5890 C.3    88  THR88       0.0375
    101  N         19.2530   33.3740   37.2660 N.3    90  ASP90      -0.1239
    102  CA        18.1940   34.1870   37.8430 C.3    90  ASP90       0.1674
    103  C         18.4800   35.2330   38.9180 C.2    90  ASP90       0.2266
    104  O         17.5390   35.8720   39.3970 O.2    90  ASP90      -0.2867
    105  CB        17.0420   33.2920   38.3140 C.3    90  ASP90       0.1410
    106  CG        17.4670   32.2660   39.3250 C.2    90  ASP90       0.3668
    107  OD1       18.6160   31.8190   39.2620 O.co2  90  ASP90      -0.2456
    108  OD2       16.6260   31.7940   40.1210 O.co2  90  ASP90      -0.2456
    109  N         18.1940   33.4940   30.3180 N.3   117  THR117     -0.1203
    110  CA        16.9730   33.4160   29.5540 C.3   117  THR117      0.1994
    111  C         15.9540   32.7370   30.4740 C.2   117  THR117      0.2618
    112  O         16.2280   32.5280   31.6830 O.2   117  THR117     -0.2717
    113  CB        17.2020   32.6400   28.2680 C.3   117  THR117      0.1784
    114  OG1       17.3900   31.2590   28.5830 O.3   117  THR117     -0.2211
    115  CG2       18.4530   33.1760   27.5120 C.3   117  THR117      0.0376
    116  N         14.7540   32.4640   29.9420 N.am  118  GLY118     -0.1942
    117  CA        13.6130   31.9820   30.7370 C.3   118  GLY118      0.2014
    118  C         12.4450   32.9830   30.6750 C.2   118  GLY118      0.2639
    119  O         12.1850   33.5590   29.6260 O.2   118  GLY118     -0.2714
    120  N         11.6300   33.0480   31.7190 N.am  119  TRP119     -0.1959
    121  CA        10.5410   33.9890   31.7200 C.3   119  TRP119      0.1771
    122  C         10.8390   35.2880   32.5780 C.2   119  TRP119      0.2620
    123  O         10.5740   36.4190   32.1580 O.2   119  TRP119     -0.2715
    124  CB         9.2400   33.2720   32.0340 C.3   119  TRP119      0.0590
    125  CG         9.1230   32.6630   33.4030 C.ar  119  TRP119      0.0006
    126  CD1        9.4350   31.3680   33.7850 C.ar  119  TRP119      0.0946
    127  CD2        8.3970   33.2460   34.5190 C.ar  119  TRP119      0.0152
    128  NE1        8.9810   31.1660   35.0800 N.ar  119  TRP119     -0.2442
    129  CE2        8.3470   32.2890   35.5470 C.ar  119  TRP119      0.0810
    130  CE3        7.8000   34.4700   34.7300 C.ar  119  TRP119      0.0012
    131  CZ2        7.7490   32.5370   36.7770 C.ar  119  TRP119      0.0191
    132  CZ3        7.1860   34.7070   35.9390 C.ar  119  TRP119      0.0001
    133  CH2        7.1430   33.7570   36.9360 C.ar  119  TRP119      0.0015
    134  N         11.4790   35.1250   33.7380 N.am  120  ASP120     -0.1958
    135  CA        11.9600   36.2790   34.5220 C.3   120  ASP120      0.1825
    136  C         13.1310   35.7630   35.3650 C.2   120  ASP120      0.2464
    137  O         12.9320   35.0720   36.4060 O.2   120  ASP120     -0.2730
    138  CB        10.9170   36.9280   35.4250 C.3   120  ASP120      0.1450
    139  CG        11.3420   38.3560   35.8550 C.2   120  ASP120      0.3671
    140  OD1       12.3980   38.8430   35.4090 O.co2 120  ASP120     -0.2456
    141  OD2       10.6230   38.9970   36.6230 O.co2 120  ASP120     -0.2456
    142  N         14.3430   35.9740   34.8560 N.am  121  PRO121     -0.2727
    143  CA        14.6140   36.8010   33.6820 C.3   121  PRO121      0.1402
    144  C         14.3210   36.0580   32.4050 C.2   121  PRO121      0.2269
    145  O         14.2460   34.8190   32.3800 O.2   121  PRO121     -0.2865
    146  CB        16.1340   37.0700   33.7670 C.3   121  PRO121      0.0296
    147  CG        16.6020   36.0340   34.8090 C.3   121  PRO121      0.0237
    148  CD        15.4930   35.9660   35.7610 C.3   121  PRO121      0.0939
    149  N         11.3320   27.9880   41.2020 N.3   150  GLN150     -0.1231
    150  CA        12.3630   26.9750   41.0150 C.3   150  GLN150      0.1698
    151  C         13.6880   27.3950   41.6400 C.2   150  GLN150      0.2592
    152  O         14.3730   26.5440   42.2420 O.2   150  GLN150     -0.2718
    153  CB        12.5850   26.6300   39.5330 C.3   150  GLN150      0.0381
    154  CG        11.6360   25.5110   38.9720 C.3   150  GLN150      0.0905
    155  CD        11.8210   25.2560   37.4820 C.2   150  GLN150      0.2608
    156  OE1       11.0710   25.8170   36.6650 O.2   150  GLN150     -0.2717
    157  NE2       12.7020   24.2960   37.1250 N.am  150  GLN150     -0.0878
    158  N         14.1210   28.6280   41.3850 N.am  151  GLY151     -0.1957
    159  CA        15.3760   29.1190   41.9600 C.3   151  GLY151      0.1869
    160  C         15.2920   29.1180   43.5040 C.2   151  GLY151      0.2309
    161  O         16.1790   28.6700   44.1840 O.2   151  GLY151     -0.2863
    162  N         15.3390   25.4200   44.8140 N.3   154  ASP154     -0.1239
    163  CA        16.6330   24.8240   44.7790 C.3   154  ASP154      0.1674
    164  C         17.5470   25.4500   45.8760 C.2   154  ASP154      0.2266
    165  O         18.2270   24.7050   46.5630 O.2   154  ASP154     -0.2867
    166  CB        17.2430   24.9460   43.3930 C.3   154  ASP154      0.1410
    167  CG        18.7670   24.7760   43.4050 C.2   154  ASP154      0.3668
    168  OD1       19.2490   23.6310   43.5980 O.co2 154  ASP154     -0.2456
    169  OD2       19.4740   25.8090   43.3850 O.co2 154  ASP154     -0.2456
    170  N         16.9050   24.1200   49.3280 N.3   157  ARG157     -0.1231
    171  CA        17.3430   22.7420   49.3650 C.3   157  ARG157      0.1694
    172  C         18.8460   22.6320   49.5800 C.2   157  ARG157      0.2591
    173  O         19.3620   21.5650   49.9390 O.2   157  ARG157     -0.2718
    174  CB        16.9840   22.0440   48.0670 C.3   157  ARG157      0.0321
    175  CG        15.6630   21.3310   48.0720 C.3   157  ARG157      0.0489
    176  CD        15.4730   20.7810   46.6650 C.3   157  ARG157      0.2205
    177  NE        14.2100   21.2920   46.1920 N.pl3 157  ARG157     -0.0865
    178  CZ        13.9700   21.7470   44.9850 C.cat 157  ARG157      0.5346
    179  NH1       14.8780   21.6360   44.0180 N.pl3 157  ARG157      0.1354
    180  NH2       12.7510   22.2210   44.7500 N.pl3 157  ARG157      0.1354
    181  N         19.5920   23.6900   49.2620 N.am  158  ARG158     -0.1980
    182  CA        21.0370   23.5980   49.4910 C.3   158  ARG158      0.1597
    183  C         21.4160   23.9580   50.9320 C.2   158  ARG158      0.2287
    184  O         22.5830   24.0420   51.2460 O.2   158  ARG158     -0.2864
    185  CB        21.8590   24.3470   48.4270 C.3   158  ARG158      0.0334
    186  CG        21.2720   24.2360   46.9980 C.3   158  ARG158      0.0492
    187  CD        21.6150   22.9210   46.3130 C.3   158  ARG158      0.2205
    188  NE        22.3240   23.1310   45.0300 N.pl3 158  ARG158     -0.0865
    189  CZ        21.9770   22.5740   43.8540 C.cat 158  ARG158      0.5346
    190  NH1       20.9480   21.7450   43.7680 N.pl3 158  ARG158      0.1354
    191  NH2       22.6590   22.8530   42.7510 N.pl3 158  ARG158      0.1354
    192  N          6.0150   25.3120   35.3410 N.3   270  ASN270     -0.1240
    193  CA         7.1470   26.2750   35.2910 C.3   270  ASN270      0.1653
    194  C          8.3500   25.8070   34.4080 C.2   270  ASN270      0.2266
    195  O          8.6290   26.4440   33.3890 O.2   270  ASN270     -0.2867
    196  CB         7.5420   26.7520   36.7670 C.3   270  ASN270      0.1155
    197  CG         8.5990   27.9190   36.8020 C.2   270  ASN270      0.2627
    198  OD1        9.1830   28.2700   35.7770 O.2   270  ASN270     -0.2716
    199  ND2        8.8330   28.5100   37.9720 N.am  270  ASN270     -0.0877
    200  N          9.8070   27.5410   30.7420 N.3   274  THR274     -0.1218
    201  CA        11.2200   27.9380   30.8590 C.3   274  THR274      0.1862
    202  C         12.0660   27.1420   29.8810 C.2   274  THR274      0.2287
    203  O         12.9210   27.6740   29.1770 O.2   274  THR274     -0.2866
    204  CB        11.7450   27.6600   32.3290 C.3   274  THR274      0.1770
    205  OG1       10.8450   28.2920   33.2640 O.3   274  THR274     -0.2211
    206  CG2       13.1440   28.2500   32.5180 C.3   274  THR274      0.0375
@<TRIPOS>BOND
     1   115   113    1
     2   113   114    1
     3   113   110    1
     4   203   202    2
     5   110   109    1
     6   110   111    1
     7   119   118    2
     8   202   201    1
     9   116   111   am
    10   116   117    1
    11   111   112    2
    12   118   117    1
    13   118   120   am
    14   200   201    1
    15   201   204    1
    16    70    69    1
    17   100    98    1
    18   120   121    1
    19   121   124    1
    20   121   122    1
    21    32    31    2
    22    16    15    1
    23    13    15   ar
    24    13    11   ar
    25   124   125    1
    26   123   122    2
    27    94    95    1
    28   204   206    1
    29   204   205    1
    30   145   144    2
    31   144   143    1
    32   122   134   am
    33    15    14   ar
    34    11    10   ar
    35    35    34    1
    36    95    98    1
    37    95    96    1
    38    65    66    1
    39    98    99    1
    40    31    30    1
    41    34    36    1
    42    34    33    1
    43    69    66    1
    44   195   194    2
    45    37    38    1
    46   125   126   ar
    47   125   127   ar
    48    66    67    1
    49   143   146    1
    50   143   142    1
    51   134   135    1
    52     1     2    1
    53     4     3    2
    54   146   147    1
    55   126   128   ar
    56    14    12   ar
    57    10    12   ar
    58    10     9    1
    59    30    33    1
    60    30    29    1
    61    96    97    2
    62    78    77    1
    63    24    23    2
    64   194   193    1
    65   127   130   ar
    66   127   129   ar
    67   135   136    1
    68   135   138    1
    69     9     6    1
    70     3     2    1
    71     3     5   am
    72   130   132   ar
    73    38    41    1
    74    38    39    1
    75   147   148    1
    76    77    76    1
    77   142   136   am
    78   142   148    1
    79    41    42    1
    80     6     5    1
    81     6     7    1
    82   128   129   ar
    83    67    71   am
    84    67    68    2
    85   193   192    1
    86   193   196    1
    87    29    23   am
    88   136   137    2
    89    23    22    1
    90   140   139   ar
    91   138   139    1
    92    40    39    2
    93   129   131   ar
    94    20    19    2
    95    71    72    1
    96   198   197    2
    97    39    43   am
    98   139   141   ar
    99   132   133   ar
   100     7    17   am
   101     7     8    2
   102    17    18    1
   103    76    75    1
   104    57    56    2
   105   156   155    2
   106    19    21   am
   107    19    18    1
   108    22    21    1
   109    22    25    1
   110   196   197    1
   111   131   133   ar
   112   197   199   am
   113    43    44    1
   114    72    75    1
   115    72    73    1
   116   157   155   am
   117   101   102    1
   118    74    73    2
   119   155   154    1
   120    25    26    1
   121    56    55    1
   122   102   105    1
   123   102   103    1
   124    73    79   am
   125    44    45    1
   126    44    47    1
   127    54    45   am
   128    54    55    1
   129    88    87    1
   130   105   106    1
   131    64    62    1
   132    45    46    2
   133    55    58    1
   134    27    26    2
   135    26    28   am
   136   103   104    2
   137    48    47    1
   138    48    49    1
   139   154   153    1
   140    58    59    1
   141    79    80    1
   142   107   106   ar
   143    62    63    1
   144    62    61    2
   145   106   108   ar
   146   153   150    1
   147    50    49    1
   148    50    51    2
   149    87    84    1
   150    53    51    1
   151    82    81    2
   152    61    60    1
   153    84    83    1
   154    84    85    1
   155    81    80    1
   156    81    83   am
   157    51    52    1
   158    59    60    1
   159   150   149    1
   160   150   151    1
   161    86    85    2
   162    85    89   am
   163   158   151   am
   164   158   159    1
   165   151   152    2
   166   159   160    1
   167    89    90    1
   168   191   189    1
   169   169   167   ar
   170   166   167    1
   171   166   163    1
   172   167   168   ar
   173   160   161    2
   174    90    91    1
   175    90    93    1
   176   190   189    1
   177   189   188    2
   178    91    92    2
   179   179   178    1
   180   180   178    1
   181   163   162    1
   182   163   164    1
   183   178   177    2
   184   188   187    1
   185   164   165    2
   186   177   176    1
   187   187   186    1
   188   176   175    1
   189   186   185    1
   190   174   175    1
   191   174   171    1
   192   185   182    1
   193   181   182    1
   194   181   172   am
   195   170   171    1
   196   171   172    1
   197   182   183    1
   198   172   173    2
   199   183   184    2
