@<TRIPOS>MOLECULE
tmp/1darA00.pdb
 125 122 0 0 0
SMALL
GASTEIGER

@<TRIPOS>ATOM
      1  N         33.3060   38.8720  -17.9500 N.3    19  ALA19      -0.1231
      2  CA        33.6780   37.8040  -17.0330 C.3    19  ALA19       0.1694
      3  C         35.1920   37.5880  -16.8500 C.2    19  ALA19       0.2592
      4  O         36.0040   37.9300  -17.7310 O.2    19  ALA19      -0.2718
      5  CB        33.0070   36.4880  -17.4810 C.3    19  ALA19       0.0304
      6  N         35.5550   37.0530  -15.6810 N.am   20  HIS20      -0.1962
      7  CA        36.9400   36.7480  -15.3480 C.3    20  HIS20       0.1787
      8  C         37.2490   35.4600  -16.0940 C.2    20  HIS20       0.2620
      9  O         36.3780   34.6140  -16.2570 O.2    20  HIS20      -0.2715
     10  CB        37.0950   36.5270  -13.8280 C.3    20  HIS20       0.0785
     11  CG        38.5050   36.2470  -13.3850 C.ar   20  HIS20       0.0821
     12  ND1       39.0720   34.9860  -13.4410 N.ar   20  HIS20      -0.2267
     13  CD2       39.4590   37.0590  -12.8660 C.ar   20  HIS20       0.1154
     14  CE1       40.3100   35.0400  -12.9750 C.ar   20  HIS20       0.1986
     15  NE2       40.5670   36.2870  -12.6210 N.ar   20  HIS20      -0.2212
     16  N         38.4990   35.2930  -16.5020 N.am   21  ILE21      -0.1963
     17  CA        38.9040   34.0930  -17.2280 C.3    21  ILE21       0.1727
     18  C         38.4490   32.8200  -16.5270 C.2    21  ILE21       0.2616
     19  O         38.7050   32.6200  -15.3300 O.2    21  ILE21      -0.2715
     20  CB        40.4480   34.0680  -17.4860 C.3    21  ILE21       0.0290
     21  CG1       40.8390   35.2720  -18.3570 C.3    21  ILE21       0.0022
     22  CG2       40.8690   32.7700  -18.1980 C.3    21  ILE21       0.0023
     23  CD1       42.3300   35.3810  -18.6660 C.3    21  ILE21       0.0001
     24  N         37.7340   32.0030  -17.2820 N.am   22  ASP22      -0.1957
     25  CA        37.1890   30.7310  -16.8390 C.3    22  ASP22       0.1840
     26  C         35.8140   30.7980  -16.2010 C.2    22  ASP22       0.2622
     27  O         35.1540   29.7760  -16.0430 O.2    22  ASP22      -0.2715
     28  CB        38.1810   29.9540  -15.9820 C.3    22  ASP22       0.1450
     29  CG        39.2200   29.2250  -16.8250 C.2    22  ASP22       0.3671
     30  OD1       40.0820   29.9230  -17.4120 O.co2  22  ASP22      -0.2456
     31  OD2       39.1680   27.9620  -16.9150 O.co2  22  ASP22      -0.2456
     32  N         35.3280   32.0050  -15.9340 N.am   23  ALA23      -0.1963
     33  CA        34.0080   32.1560  -15.3350 C.3    23  ALA23       0.1728
     34  C         32.9990   31.4090  -16.2280 C.2    23  ALA23       0.2617
     35  O         32.0070   30.8380  -15.7610 O.2    23  ALA23      -0.2715
     36  CB        33.6580   33.6290  -15.2320 C.3    23  ALA23       0.0334
     37  N         33.2840   31.3940  -17.5200 N.am   24  GLY24      -0.1940
     38  CA        32.4240   30.7160  -18.4570 C.3    24  GLY24       0.2014
     39  C         31.7910   31.6700  -19.4520 C.2    24  GLY24       0.2639
     40  O         30.7140   31.3710  -19.9550 O.2    24  GLY24      -0.2714
     41  N         32.4320   32.8030  -19.7440 N.am   25  LYS25      -0.1963
     42  CA        31.8920   33.7710  -20.7020 C.3    25  LYS25       0.1728
     43  C         31.5180   33.1690  -22.0650 C.2    25  LYS25       0.2617
     44  O         30.4000   33.3480  -22.5430 O.2    25  LYS25      -0.2715
     45  CB        32.8760   34.9150  -20.9370 C.3    25  LYS25       0.0311
     46  CG        32.4370   35.8900  -22.0140 C.3    25  LYS25       0.0038
     47  CD        33.5550   36.8370  -22.4320 C.3    25  LYS25       0.0206
     48  CE        33.0770   37.9130  -23.4260 C.3    25  LYS25       0.1093
     49  NZ        32.5080   37.3940  -24.7300 N.3    25  LYS25      -0.1314
     50  N         32.4060   32.4080  -22.6820 N.am   26  THR26      -0.1937
     51  CA        32.0650   31.8850  -23.9940 C.3    26  THR26       0.2028
     52  C         31.0480   30.7640  -24.0020 C.2    26  THR26       0.2642
     53  O         30.1750   30.7460  -24.8640 O.2    26  THR26      -0.2714
     54  CB        33.3140   31.5220  -24.8460 C.3    26  THR26       0.1808
     55  OG1       33.3480   30.1130  -25.0850 O.3    26  THR26      -0.2208
     56  CG2       34.6150   31.9990  -24.1770 C.3    26  THR26       0.0379
     57  N         31.1350   29.8600  -23.0360 N.am   27  THR27      -0.1950
     58  CA        30.2010   28.7540  -22.9430 C.3    27  THR27       0.1897
     59  C         28.7940   29.2560  -22.7310 C.2    27  THR27       0.2313
     60  O         27.8350   28.5740  -23.0790 O.2    27  THR27      -0.2863
     61  CB        30.5530   27.8090  -21.7860 C.3    27  THR27       0.1794
     62  OG1       31.8730   27.2950  -21.9690 O.3    27  THR27      -0.2208
     63  CG2       29.6200   26.6330  -21.7560 C.3    27  THR27       0.0378
     64  N         27.3420   31.3490  -12.5590 N.3   110  ASN110     -0.1225
     65  CA        27.5240   30.1510  -13.3720 C.3   110  ASN110      0.1785
     66  C         28.2200   29.0530  -12.5750 C.2   110  ASN110      0.2597
     67  O         28.7880   29.3150  -11.5340 O.2   110  ASN110     -0.2718
     68  CB        28.3540   30.5180  -14.6270 C.3   110  ASN110      0.1169
     69  CG        28.3470   29.4180  -15.7100 C.2   110  ASN110      0.2627
     70  OD1       27.3080   28.7750  -15.9610 O.2   110  ASN110     -0.2716
     71  ND2       29.5040   29.2040  -16.3590 N.am  110  ASN110     -0.0877
     72  N         28.1270   27.8170  -13.0420 N.am  111  LYS111     -0.1980
     73  CA        28.7870   26.6720  -12.4220 C.3   111  LYS111      0.1596
     74  C         28.1910   26.1280  -11.1560 C.2   111  LYS111      0.2287
     75  O         28.8860   25.4720  -10.3910 O.2   111  LYS111     -0.2864
     76  CB        30.2700   26.9470  -12.2060 C.3   111  LYS111      0.0298
     77  CG        31.0380   26.9490  -13.4990 C.3   111  LYS111      0.0038
     78  CD        32.4880   27.3960  -13.3420 C.3   111  LYS111      0.0206
     79  CE        33.1710   27.5490  -14.7030 C.3   111  LYS111      0.1093
     80  NZ        34.6140   27.2110  -14.6290 N.3   111  LYS111     -0.1314
     81  N         26.8060   23.6100  -10.6560 N.3   113  ASP113     -0.1225
     82  CA        26.9330   22.1370  -10.6280 C.3   113  ASP113      0.1805
     83  C         28.3070   21.7140  -10.0920 C.2   113  ASP113      0.2597
     84  O         28.5350   20.5380   -9.7810 O.2   113  ASP113     -0.2718
     85  CB        26.7760   21.5550  -12.0570 C.3   113  ASP113      0.1424
     86  CG        27.7940   22.1430  -13.0640 C.2   113  ASP113      0.3668
     87  OD1       27.6840   23.3490  -13.3860 O.co2 113  ASP113     -0.2456
     88  OD2       28.7120   21.4130  -13.5130 O.co2 113  ASP113     -0.2456
     89  N         29.2260   22.6800  -10.0720 N.am  114  LYS114     -0.1979
     90  CA        30.5960   22.4800   -9.6590 C.3   114  LYS114      0.1596
     91  C         30.7460   22.2350   -8.1700 C.2   114  LYS114      0.2287
     92  O         30.0410   22.8260   -7.3280 O.2   114  LYS114     -0.2864
     93  CB        31.4420   23.6880  -10.0630 C.3   114  LYS114      0.0298
     94  CG        32.9210   23.5020   -9.8190 C.3   114  LYS114      0.0038
     95  CD        33.7340   24.7490  -10.1460 C.3   114  LYS114      0.0206
     96  CE        35.2090   24.5170   -9.8710 C.3   114  LYS114      0.1093
     97  NZ        36.0600   25.6660  -10.2850 N.3   114  LYS114     -0.1314
     98  N         23.9390   26.7590  -14.7930 N.3   235  SER235     -0.1202
     99  CA        25.0980   26.0420  -15.2330 C.3   235  SER235      0.2020
    100  C         25.0210   26.0590  -16.7720 C.2   235  SER235      0.2619
    101  O         24.1930   25.3650  -17.3860 O.2   235  SER235     -0.2717
    102  CB        25.0130   24.6250  -14.7310 C.3   235  SER235      0.2103
    103  OG        26.0480   23.8610  -15.2900 O.3   235  SER235     -0.2182
    104  N         25.8080   26.9270  -17.3880 N.am  236  ALA236     -0.1965
    105  CA        25.8260   27.0080  -18.8260 C.3   236  ALA236      0.1728
    106  C         26.1560   25.6100  -19.3410 C.2   236  ALA236      0.2616
    107  O         25.3360   24.9890  -19.9730 O.2   236  ALA236     -0.2715
    108  CB        26.8420   27.9780  -19.2520 C.3   236  ALA236      0.0334
    109  N         27.2650   25.0440  -18.9040 N.am  237  LEU237     -0.1963
    110  CA        27.6790   23.7100  -19.3260 C.3   237  LEU237      0.1728
    111  C         26.7030   22.5380  -19.2000 C.2   237  LEU237      0.2616
    112  O         26.8840   21.5230  -19.8600 O.2   237  LEU237     -0.2715
    113  CB        28.9370   23.3070  -18.5700 C.3   237  LEU237      0.0311
    114  CG        29.5160   21.9250  -18.8990 C.3   237  LEU237      0.0022
    115  CD1       30.3060   22.0270  -20.1870 C.3   237  LEU237      0.0001
    116  CD2       30.4230   21.4620  -17.7800 C.3   237  LEU237      0.0001
    117  N         25.7250   22.6100  -18.3070 N.am  238  LYS238     -0.1977
    118  CA        24.8070   21.4830  -18.1260 C.3   238  LYS238      0.1596
    119  C         23.4510   21.8360  -18.6490 C.2   238  LYS238      0.2287
    120  O         22.4970   21.0880  -18.4800 O.2   238  LYS238     -0.2864
    121  CB        24.6900   21.1210  -16.6530 C.3   238  LYS238      0.0298
    122  CG        26.0100   20.8220  -15.9670 C.3   238  LYS238      0.0038
    123  CD        26.5200   19.4560  -16.3070 C.3   238  LYS238      0.0206
    124  CE        27.8990   19.2580  -15.7210 C.3   238  LYS238      0.1093
    125  NZ        28.5080   17.9510  -16.0710 N.3   238  LYS238     -0.1314
@<TRIPOS>BOND
     1    55    54    1
     2    53    52    2
     3    54    56    1
     4    54    51    1
     5    49    48    1
     6    52    51    1
     7    52    57   am
     8    51    50    1
     9    48    47    1
    10    60    59    2
    11    57    58    1
    12    58    59    1
    13    58    61    1
    14    50    43   am
    15    44    43    2
    16    47    46    1
    17    43    42    1
    18    46    45    1
    19    62    61    1
    20    61    63    1
    21    45    42    1
    22    42    41    1
    23   115   114    1
    24   107   106    2
    25    40    39    2
    26   112   111    2
    27    41    39   am
    28    39    38    1
    29   106   109   am
    30   106   105    1
    31   110   111    1
    32   110   109    1
    33   110   113    1
    34   108   105    1
    35   111   117   am
    36   114   113    1
    37   114   116    1
    38   105   104    1
    39    23    21    1
    40   119   120    2
    41   119   118    1
    42    38    37    1
    43    21    20    1
    44   117   118    1
    45    22    20    1
    46   118   121    1
    47     1     2    1
    48     4     3    2
    49    37    34   am
    50    20    17    1
    51     5     2    1
    52    30    29   ar
    53   104   100   am
    54   101   100    2
    55    24    25    1
    56    24    18   am
    57    17    18    1
    58    17    16    1
    59     2     3    1
    60    31    29   ar
    61     3     6   am
    62    25    26    1
    63    25    28    1
    64    29    28    1
    65   100    99    1
    66   121   122    1
    67    18    19    2
    68    16     8   am
    69    71    69   am
    70   123   122    1
    71   123   124    1
    72     9     8    2
    73    34    35    2
    74    34    33    1
    75    26    27    2
    76    26    32   am
    77     8     7    1
    78   125   124    1
    79    70    69    2
    80    32    33    1
    81    69    68    1
    82     6     7    1
    83     7    10    1
    84    33    36    1
    85   103   102    1
    86    99    98    1
    87    99   102    1
    88    79    80    1
    89    79    78    1
    90    68    65    1
    91    10    11    1
    92    88    86   ar
    93    77    78    1
    94    77    76    1
    95    12    11   ar
    96    12    14   ar
    97    87    86   ar
    98    11    13   ar
    99    65    66    1
   100    65    64    1
   101    86    85    1
   102    72    66   am
   103    72    73    1
   104    14    15   ar
   105    13    15   ar
   106    66    67    2
   107    73    76    1
   108    73    74    1
   109    85    82    1
   110    74    75    2
   111    81    82    1
   112    82    83    1
   113    97    96    1
   114    95    96    1
   115    95    94    1
   116    83    89   am
   117    83    84    2
   118    89    90    1
   119    93    94    1
   120    93    90    1
   121    90    91    1
   122    91    92    2
