@<TRIPOS>MOLECULE
tmp/1dbbB00.pdb
 108 110 0 0 0
SMALL
GASTEIGER

@<TRIPOS>ATOM
      1  N        -29.3960   46.3510   -9.4100 N.3    33  GLY33      -0.1225
      2  CA       -29.3470   45.0670   -8.7370 C.3    33  GLY33       0.1811
      3  C        -29.1850   45.2580   -7.2440 C.2    33  GLY33       0.2280
      4  O        -28.7310   46.3120   -6.8050 O.2    33  GLY33      -0.2866
      5  N        -26.8730   44.1980   -4.4280 N.3    35  ASN35      -0.1240
      6  CA       -25.5820   43.5990   -4.0670 C.3    35  ASN35       0.1653
      7  C        -25.4280   43.5050   -2.5520 C.2    35  ASN35       0.2266
      8  O        -25.6190   44.4800   -1.8330 O.2    35  ASN35      -0.2867
      9  CB       -24.4070   44.4300   -4.5270 C.3    35  ASN35       0.1155
     10  CG       -24.3290   44.8580   -5.9870 C.2    35  ASN35       0.2627
     11  OD1      -23.4620   44.4600   -6.7480 O.2    35  ASN35      -0.2716
     12  ND2      -25.1580   45.7650   -6.4530 N.am   35  ASN35      -0.0877
     13  N        -17.2590   41.9540   -0.6320 N.3    47  TRP47      -0.1241
     14  CA       -18.4800   41.7610   -1.3940 C.3    47  TRP47       0.1605
     15  C        -18.9820   40.3210   -1.4120 C.2    47  TRP47       0.2264
     16  O        -18.2160   39.3680   -1.5480 O.2    47  TRP47      -0.2867
     17  CB       -18.1840   42.2510   -2.7680 C.3    47  TRP47       0.0550
     18  CG       -19.3190   42.5000   -3.7610 C.ar   47  TRP47       0.0003
     19  CD1      -19.8660   43.7490   -3.8640 C.ar   47  TRP47       0.0946
     20  CD2      -19.7750   41.6290   -4.7360 C.ar   47  TRP47       0.0152
     21  NE1      -20.6300   43.6730   -4.9190 N.ar   47  TRP47      -0.2442
     22  CE2      -20.6030   42.4570   -5.4620 C.ar   47  TRP47       0.0810
     23  CE3      -19.6110   40.3110   -5.1310 C.ar   47  TRP47       0.0012
     24  CZ2      -21.2710   42.0100   -6.5760 C.ar   47  TRP47       0.0191
     25  CZ3      -20.2790   39.8500   -6.2510 C.ar   47  TRP47       0.0001
     26  CH2      -21.1030   40.6880   -6.9710 C.ar   47  TRP47       0.0015
     27  N        -24.8740   39.2560   -5.4500 N.3    50  TRP50      -0.1241
     28  CA       -25.6170   40.2410   -6.2760 C.3    50  TRP50       0.1605
     29  C        -26.8680   39.4770   -6.6390 C.2    50  TRP50       0.2264
     30  O        -26.7990   38.2380   -6.7860 O.2    50  TRP50      -0.2867
     31  CB       -24.8860   40.5620   -7.5870 C.3    50  TRP50       0.0550
     32  CG       -25.6310   41.2480   -8.7410 C.ar   50  TRP50       0.0003
     33  CD1      -26.7100   42.1000   -8.5730 C.ar   50  TRP50       0.0946
     34  CD2      -25.3410   41.1080  -10.0720 C.ar   50  TRP50       0.0152
     35  NE1      -27.1000   42.4850   -9.7750 N.ar   50  TRP50      -0.2442
     36  CE2      -26.3060   41.9220  -10.6790 C.ar   50  TRP50       0.0810
     37  CE3      -24.4270   40.4220  -10.8100 C.ar   50  TRP50       0.0012
     38  CZ2      -26.4220   42.1100  -12.0260 C.ar   50  TRP50       0.0191
     39  CZ3      -24.5310   40.5950  -12.1710 C.ar   50  TRP50       0.0001
     40  CH2      -25.4980   41.4180  -12.7650 C.ar   50  TRP50       0.0015
     41  N        -25.4710   35.9750   -8.2820 N.3    59  THR59      -0.1218
     42  CA       -24.0670   35.6460   -8.4920 C.3    59  THR59       0.1862
     43  C        -23.4930   35.6800   -7.0910 C.2    59  THR59       0.2287
     44  O        -23.9740   36.3130   -6.1350 O.2    59  THR59      -0.2866
     45  CB       -23.3670   36.6770   -9.4010 C.3    59  THR59       0.1770
     46  OG1      -23.9580   36.3160  -10.6400 O.3    59  THR59      -0.2211
     47  CG2      -21.8160   36.6560   -9.5270 C.3    59  THR59       0.0375
     48  N        -27.0090   48.5360   -6.8100 N.3    99  GLY99      -0.1210
     49  CA       -25.9570   48.6420   -7.7950 C.3    99  GLY99       0.1956
     50  C        -26.4280   48.8840   -9.2280 C.2    99  GLY99       0.2612
     51  O        -27.2800   48.2170   -9.8260 O.2    99  GLY99      -0.2717
     52  N        -25.6880   49.7730   -9.8330 N.am  100  ASP100     -0.1959
     53  CA       -25.9710   50.3000  -11.1410 C.3   100  ASP100      0.1840
     54  C        -25.2720   49.6020  -12.3240 C.2   100  ASP100      0.2622
     55  O        -24.0830   49.3080  -12.2840 O.2   100  ASP100     -0.2715
     56  CB       -25.6090   51.7640  -11.0570 C.3   100  ASP100      0.1450
     57  CG       -25.7980   52.4890  -12.3540 C.2   100  ASP100      0.3671
     58  OD1      -26.8790   52.9890  -12.6110 O.co2 100  ASP100     -0.2456
     59  OD2      -24.8680   52.5270  -13.1230 O.co2 100  ASP100     -0.2456
     60  N        -25.9650   49.4790  -13.4660 N.am  101  TYR101     -0.1974
     61  CA       -25.5200   48.8020  -14.6940 C.3   101  TYR101      0.1639
     62  C        -24.7040   49.6740  -15.6010 C.2   101  TYR101      0.2290
     63  O        -24.0680   49.1300  -16.4770 O.2   101  TYR101     -0.2864
     64  CB       -26.6980   48.3450  -15.5490 C.3   101  TYR101      0.0560
     65  CG       -27.6080   47.3190  -14.9160 C.ar  101  TYR101     -0.0198
     66  CD1      -27.3210   45.9880  -15.0790 C.ar  101  TYR101     -0.0009
     67  CD2      -28.6980   47.7220  -14.1910 C.ar  101  TYR101     -0.0009
     68  CE1      -28.1380   45.0530  -14.5000 C.ar  101  TYR101      0.0417
     69  CE2      -29.5190   46.7960  -13.6160 C.ar  101  TYR101      0.0417
     70  CZ       -29.2180   45.4800  -13.7780 C.ar  101  TYR101      0.1957
     71  OH       -30.0240   44.5410  -13.1810 O.3   101  TYR101     -0.2866
     72  N        -21.5050   51.3790  -12.8690 N.3   104  TRP104     -0.1227
     73  CA       -21.0700   50.3200  -11.9950 C.3   104  TRP104      0.1737
     74  C        -20.6920   50.5970  -10.5350 C.2   104  TRP104      0.2595
     75  O        -19.8190   50.0010   -9.8970 O.2   104  TRP104     -0.2718
     76  CB       -19.9310   49.6550  -12.7500 C.3   104  TRP104      0.0564
     77  CG       -20.1620   49.0080  -14.1390 C.ar  104  TRP104      0.0003
     78  CD1      -21.3840   48.9210  -14.7720 C.ar  104  TRP104      0.0946
     79  CD2      -19.1870   48.3670  -14.8760 C.ar  104  TRP104      0.0152
     80  NE1      -21.1910   48.2300  -15.8740 N.ar  104  TRP104     -0.2442
     81  CE2      -19.8950   47.8790  -15.9670 C.ar  104  TRP104      0.0810
     82  CE3      -17.8410   48.1590  -14.7260 C.ar  104  TRP104      0.0012
     83  CZ2      -19.2510   47.1600  -16.9450 C.ar  104  TRP104      0.0191
     84  CZ3      -17.1970   47.4490  -15.6960 C.ar  104  TRP104      0.0001
     85  CH2      -17.8930   46.9580  -16.7880 C.ar  104  TRP104      0.0015
     86  N        -21.3830   51.5230   -9.9120 N.am  105  TYR105     -0.1962
     87  CA       -21.1270   51.8910   -8.5500 C.3   105  TYR105      0.1771
     88  C        -22.1880   51.3890   -7.6310 C.2   105  TYR105      0.2619
     89  O        -23.0480   50.6810   -8.1110 O.2   105  TYR105     -0.2715
     90  CB       -21.0410   53.3900   -8.4590 C.3   105  TYR105      0.0574
     91  CG       -22.0650   54.3150   -9.0830 C.ar  105  TYR105     -0.0198
     92  CD1      -23.4360   54.1430   -9.0350 C.ar  105  TYR105     -0.0009
     93  CD2      -21.5160   55.4000   -9.7090 C.ar  105  TYR105     -0.0009
     94  CE1      -24.2460   55.0920   -9.6180 C.ar  105  TYR105      0.0417
     95  CE2      -22.3260   56.3350  -10.2940 C.ar  105  TYR105      0.0417
     96  CZ       -23.6830   56.1840  -10.2390 C.ar  105  TYR105      0.1957
     97  OH       -24.4400   57.1950  -10.8130 O.3   105  TYR105     -0.2866
     98  N        -22.1930   51.7600   -6.3510 N.am  106  PHE106     -0.1974
     99  CA       -23.1770   51.3690   -5.3730 C.3   106  PHE106      0.1639
    100  C        -23.6540   52.6440   -4.7670 C.2   106  PHE106      0.2290
    101  O        -22.9700   53.2130   -3.9290 O.2   106  PHE106     -0.2864
    102  CB       -22.5800   50.5570   -4.2600 C.3   106  PHE106      0.0560
    103  CG       -22.1140   49.1700   -4.6160 C.ar  106  PHE106     -0.0200
    104  CD1      -22.5040   48.5710   -5.7890 C.ar  106  PHE106     -0.0042
    105  CD2      -21.2850   48.5260   -3.7410 C.ar  106  PHE106     -0.0042
    106  CE1      -22.0470   47.3160   -6.0800 C.ar  106  PHE106     -0.0003
    107  CE2      -20.8290   47.2660   -4.0360 C.ar  106  PHE106     -0.0003
    108  CZ       -21.2120   46.6710   -5.2050 C.ar  106  PHE106     -0.0000
@<TRIPOS>BOND
     1    83    85   ar
     2    83    81   ar
     3    85    84   ar
     4    63    62    2
     5    81    80   ar
     6    81    79   ar
     7    80    78   ar
     8    84    82   ar
     9    62    61    1
    10    64    65    1
    11    64    61    1
    12    66    65   ar
    13    66    68   ar
    14    65    67   ar
    15    79    82   ar
    16    79    77   ar
    17    78    77   ar
    18    61    60    1
    19    68    70   ar
    20    67    69   ar
    21    77    76    1
    22    70    69   ar
    23    70    71    1
    24    60    54   am
    25    59    57   ar
    26    72    73    1
    27    40    39   ar
    28    40    38   ar
    29    76    73    1
    30    58    57   ar
    31    57    56    1
    32    54    55    2
    33    54    53    1
    34    39    37   ar
    35    38    36   ar
    36    73    74    1
    37    53    56    1
    38    53    52    1
    39    97    96    1
    40    37    34   ar
    41    36    34   ar
    42    36    35   ar
    43    46    45    1
    44    74    86   am
    45    74    75    2
    46    95    96   ar
    47    95    93   ar
    48    96    94   ar
    49    34    32   ar
    50    86    87    1
    51    52    50   am
    52    51    50    2
    53    35    33   ar
    54    93    91   ar
    55    94    92   ar
    56    47    45    1
    57     1     2    1
    58    45    42    1
    59    50    49    1
    60    91    92   ar
    61    91    90    1
    62    32    33   ar
    63    32    31    1
    64     2     3    1
    65    87    90    1
    66    87    88    1
    67    42    41    1
    68    42    43    1
    69    89    88    2
    70    49    48    1
    71    88    98   am
    72    31    28    1
    73     3     4    2
    74    43    44    2
    75    26    24   ar
    76    26    25   ar
    77    30    29    2
    78    11    10    2
    79    29    28    1
    80    24    22   ar
    81    12    10   am
    82    98    99    1
    83    28    27    1
    84    25    23   ar
    85   106   104   ar
    86   106   108   ar
    87    10     9    1
    88   104   103   ar
    89    22    21   ar
    90    22    20   ar
    91    99   100    1
    92    99   102    1
    93   108   107   ar
    94    23    20   ar
    95    21    19   ar
    96   100   101    2
    97    20    18   ar
    98   103   102    1
    99   103   105   ar
   100     9     6    1
   101     5     6    1
   102     6     7    1
   103   107   105   ar
   104    19    18   ar
   105    18    17    1
   106    17    14    1
   107     7     8    2
   108    16    15    2
   109    15    14    1
   110    14    13    1
