@<TRIPOS>MOLECULE
tmp/1dbgA00.pdb
 151 145 0 0 0
SMALL
GASTEIGER

@<TRIPOS>ATOM
      1  N         37.3400    8.1160   22.8410 N.3   136  ARG136     -0.1245
      2  CA        38.1390    9.3290   22.9120 C.3   136  ARG136      0.1563
      3  C         39.3010    9.2770   21.9300 C.2   136  ARG136      0.2260
      4  O         39.9630    8.2550   21.7840 O.2   136  ARG136     -0.2867
      5  CB        38.6850    9.5160   24.3310 C.3   136  ARG136      0.0307
      6  CG        39.5100   10.7910   24.5160 C.3   136  ARG136      0.0489
      7  CD        40.1250   10.8690   25.9090 C.3   136  ARG136      0.2205
      8  NE        40.9170   12.0840   26.0820 N.pl3 136  ARG136     -0.0865
      9  CZ        41.7190   12.3150   27.1170 C.cat 136  ARG136      0.5346
     10  NH1       41.8440   11.4070   28.0800 N.pl3 136  ARG136      0.1354
     11  NH2       42.4030   13.4510   27.1840 N.pl3 136  ARG136      0.1354
     12  N         45.3300   13.9400   21.6590 N.3   139  HIS139     -0.1241
     13  CA        46.7510   14.1560   21.4370 C.3   139  HIS139      0.1621
     14  C         47.2800   13.4840   20.1770 C.2   139  HIS139      0.2264
     15  O         48.3980   12.9730   20.1520 O.2   139  HIS139     -0.2867
     16  CB        47.5620   13.7010   22.6540 C.3   139  HIS139      0.0745
     17  CG        47.2010   14.4110   23.9210 C.ar  139  HIS139      0.0817
     18  ND1       46.1090   14.0670   24.6860 N.ar  139  HIS139     -0.2268
     19  CD2       47.7730   15.4740   24.5400 C.ar  139  HIS139      0.1154
     20  CE1       46.0240   14.8810   25.7240 C.ar  139  HIS139      0.1986
     21  NE2       47.0210   15.7440   25.6580 N.ar  139  HIS139     -0.2212
     22  N         34.7000   12.0620   22.7500 N.3   174  ARG174     -0.1245
     23  CA        35.4610   13.2650   23.0180 C.3   174  ARG174      0.1563
     24  C         36.6600   13.2990   22.0920 C.2   174  ARG174      0.2260
     25  O         37.3420   12.2940   21.9040 O.2   174  ARG174     -0.2867
     26  CB        35.9630   13.3070   24.4610 C.3   174  ARG174      0.0307
     27  CG        36.7410   14.5860   24.7750 C.3   174  ARG174      0.0489
     28  CD        37.4330   14.5560   26.1440 C.3   174  ARG174      0.2205
     29  NE        38.0810   15.8340   26.4400 N.pl3 174  ARG174     -0.0865
     30  CZ        38.9750   16.0240   27.4090 C.cat 174  ARG174      0.5346
     31  NH1       39.3430   15.0180   28.1910 N.pl3 174  ARG174      0.1354
     32  NH2       39.4970   17.2260   27.6000 N.pl3 174  ARG174      0.1354
     33  N         39.9270   15.6660   21.8020 N.3   176  ASP176     -0.1225
     34  CA        40.6420   16.7690   22.4260 C.3   176  ASP176      0.1805
     35  C         42.1420   16.7410   22.1950 C.2   176  ASP176      0.2597
     36  O         42.7230   15.6940   21.9110 O.2   176  ASP176     -0.2718
     37  CB        40.3810   16.7970   23.9370 C.3   176  ASP176      0.1424
     38  CG        40.8220   15.5200   24.6350 C.2   176  ASP176      0.3668
     39  OD1       40.1290   14.4940   24.4940 O.co2 176  ASP176     -0.2456
     40  OD2       41.8670   15.5370   25.3150 O.co2 176  ASP176     -0.2456
     41  N         42.7540   17.9140   22.3180 N.am  177  HIS177     -0.1975
     42  CA        44.1940   18.0600   22.1740 C.3   177  HIS177      0.1656
     43  C         44.7730   17.4610   20.9010 C.2   177  HIS177      0.2291
     44  O         45.8590   16.8870   20.9200 O.2   177  HIS177     -0.2864
     45  CB        44.8760   17.4490   23.3920 C.3   177  HIS177      0.0771
     46  CG        44.4580   18.0760   24.6830 C.ar  177  HIS177      0.0820
     47  ND1       44.9970   19.2560   25.1480 N.ar  177  HIS177     -0.2267
     48  CD2       43.4920   17.7290   25.5640 C.ar  177  HIS177      0.1154
     49  CE1       44.3840   19.6050   26.2640 C.ar  177  HIS177      0.1986
     50  NE2       43.4650   18.6980   26.5390 N.ar  177  HIS177     -0.2212
     51  N         37.0130   19.5770   22.3810 N.3   208  ASP208     -0.1225
     52  CA        37.6520   20.6580   23.1090 C.3   208  ASP208      0.1805
     53  C         39.1730   20.6680   23.0690 C.2   208  ASP208      0.2598
     54  O         39.8200   19.6300   22.9480 O.2   208  ASP208     -0.2718
     55  CB        37.1860   20.6240   24.5760 C.3   208  ASP208      0.1424
     56  CG        37.6580   19.3750   25.3290 C.2   208  ASP208      0.3668
     57  OD1       37.4380   18.2480   24.8430 O.co2 208  ASP208     -0.2456
     58  OD2       38.2370   19.5240   26.4270 O.co2 208  ASP208     -0.2456
     59  N         39.7370   21.8670   23.1600 N.am  209  SER209     -0.1952
     60  CA        41.1810   22.0210   23.2000 C.3   209  SER209      0.1924
     61  C         41.9360   21.4390   22.0280 C.2   209  SER209      0.2314
     62  O         42.9920   20.8290   22.1930 O.2   209  SER209     -0.2863
     63  CB        41.7000   21.4220   24.5000 C.3   209  SER209      0.2116
     64  OG        41.0740   22.1040   25.5640 O.3   209  SER209     -0.2180
     65  N         34.2670   23.4230   22.8470 N.3   232  TYR232     -0.1227
     66  CA        34.8360   24.3100   23.8520 C.3   232  TYR232      0.1736
     67  C         36.3540   24.4320   23.8690 C.2   232  TYR232      0.2596
     68  O         37.0800   23.4370   23.8730 O.2   232  TYR232     -0.2718
     69  CB        34.3430   23.8650   25.2360 C.3   232  TYR232      0.0548
     70  CG        34.9920   24.5850   26.3880 C.ar  232  TYR232     -0.0200
     71  CD1       36.0000   23.9790   27.1340 C.ar  232  TYR232     -0.0009
     72  CD2       34.6130   25.8830   26.7210 C.ar  232  TYR232     -0.0009
     73  CE1       36.6170   24.6480   28.1930 C.ar  232  TYR232      0.0417
     74  CE2       35.2230   26.5650   27.7760 C.ar  232  TYR232      0.0417
     75  CZ        36.2220   25.9390   28.5080 C.ar  232  TYR232      0.1957
     76  OH        36.8000   26.5950   29.5690 O.3   232  TYR232     -0.2866
     77  N         36.8230   25.6740   23.8800 N.am  233  GLY233     -0.1957
     78  CA        38.2480   25.9360   23.9420 C.3   233  GLY233      0.1869
     79  C         39.0980   25.4710   22.7800 C.2   233  GLY233      0.2309
     80  O         40.2470   25.0850   22.9790 O.2   233  GLY233     -0.2863
     81  N         33.8310   29.7150   24.1150 N.3   255  ASN255     -0.1240
     82  CA        35.2190   30.1010   24.2850 C.3   255  ASN255      0.1653
     83  C         36.2040   29.5390   23.2720 C.2   255  ASN255      0.2266
     84  O         37.2720   29.0470   23.6390 O.2   255  ASN255     -0.2867
     85  CB        35.6690   29.7330   25.6970 C.3   255  ASN255      0.1155
     86  CG        36.7270   30.6740   26.2230 C.2   255  ASN255      0.2627
     87  OD1       37.8340   30.7590   25.6860 O.2   255  ASN255     -0.2716
     88  ND2       36.3830   31.4040   27.2740 N.am  255  ASN255     -0.0877
     89  N         38.5910   30.2000   19.7940 N.3   257  PHE257     -0.1241
     90  CA        39.3080   31.3200   19.2070 C.3   257  PHE257      0.1605
     91  C         39.4070   31.1500   17.7070 C.2   257  PHE257      0.2264
     92  O         39.9340   30.1530   17.2270 O.2   257  PHE257     -0.2867
     93  CB        40.7230   31.4520   19.7780 C.3   257  PHE257      0.0534
     94  CG        40.7630   31.8000   21.2340 C.ar  257  PHE257     -0.0203
     95  CD1       40.5500   30.8280   22.2030 C.ar  257  PHE257     -0.0042
     96  CD2       40.9900   33.1120   21.6380 C.ar  257  PHE257     -0.0042
     97  CE1       40.5680   31.1560   23.5560 C.ar  257  PHE257     -0.0003
     98  CE2       41.0090   33.4520   22.9920 C.ar  257  PHE257     -0.0003
     99  CZ        40.7950   32.4680   23.9510 C.ar  257  PHE257     -0.0000
    100  N         30.2310   19.8500   31.7790 N.3   425  LEU425     -0.1245
    101  CA        30.5720   21.2650   31.7040 C.3   425  LEU425      0.1561
    102  C         29.4350   22.1300   32.2300 C.2   425  LEU425      0.2260
    103  O         28.2660   21.8840   31.9360 O.2   425  LEU425     -0.2867
    104  CB        30.9050   21.6700   30.2640 C.3   425  LEU425      0.0270
    105  CG        32.2220   21.1300   29.7050 C.3   425  LEU425      0.0019
    106  CD1       32.4290   21.6080   28.2660 C.3   425  LEU425      0.0001
    107  CD2       33.3620   21.6180   30.5840 C.3   425  LEU425      0.0001
    108  N         37.9660   33.3860   28.3450 N.3   436  THR436     -0.1203
    109  CA        39.1440   33.0670   29.1460 C.3   436  THR436      0.1994
    110  C         40.2890   32.5010   28.3120 C.2   436  THR436      0.2618
    111  O         40.0930   32.0370   27.1860 O.2   436  THR436     -0.2717
    112  CB        38.8260   32.0350   30.2440 C.3   436  THR436      0.1784
    113  OG1       38.5610   30.7620   29.6430 O.3   436  THR436     -0.2211
    114  CG2       37.6060   32.4700   31.0480 C.3   436  THR436      0.0376
    115  N         41.4870   32.5370   28.8860 N.am  437  GLY437     -0.1942
    116  CA        42.6590   32.0170   28.2080 C.3   437  GLY437      0.2014
    117  C         42.9910   32.6950   26.8930 C.2   437  GLY437      0.2639
    118  O         42.6890   33.8710   26.6850 O.2   437  GLY437     -0.2714
    119  N         43.6250   31.9440   26.0020 N.am  438  LYS438     -0.1963
    120  CA        44.0150   32.4730   24.7010 C.3   438  LYS438      0.1713
    121  C         44.2740   31.3270   23.7270 C.2   438  LYS438      0.2458
    122  O         44.1820   30.1660   24.1030 O.2   438  LYS438     -0.2730
    123  CB        45.2620   33.3360   24.8470 C.3   438  LYS438      0.0311
    124  CG        46.4750   32.5980   25.3390 C.3   438  LYS438      0.0038
    125  CD        47.6780   33.5110   25.2030 C.3   438  LYS438      0.0206
    126  CE        48.9490   32.8220   25.6200 C.3   438  LYS438      0.1093
    127  NZ        50.1330   33.6680   25.2800 N.3   438  LYS438     -0.1314
    128  N         44.6270   31.6400   22.4670 N.am  439  PRO439     -0.2716
    129  CA        44.8840   30.5810   21.4840 C.3   439  PRO439      0.1536
    130  C         45.8650   29.5050   21.9500 C.2   439  PRO439      0.2598
    131  O         46.8840   29.8070   22.5690 O.2   439  PRO439     -0.2715
    132  CB        45.4030   31.3660   20.2840 C.3   439  PRO439      0.0310
    133  CG        44.6090   32.6650   20.3950 C.3   439  PRO439      0.0237
    134  CD        44.8600   32.9620   21.8540 C.3   439  PRO439      0.0939
    135  N         45.5500   28.2490   21.6390 N.am  440  LEU440     -0.1978
    136  CA        46.3910   27.1120   22.0030 C.3   440  LEU440      0.1596
    137  C         47.5680   26.9950   21.0440 C.2   440  LEU440      0.2287
    138  O         47.4610   27.3640   19.8750 O.2   440  LEU440     -0.2864
    139  CB        45.5810   25.8120   21.9560 C.3   440  LEU440      0.0297
    140  CG        44.5130   25.5880   23.0330 C.3   440  LEU440      0.0022
    141  CD1       43.6110   24.4210   22.6570 C.3   440  LEU440      0.0001
    142  CD2       45.1960   25.3300   24.3650 C.3   440  LEU440      0.0001
    143  N         50.9520   22.6340   23.5310 N.3   444  GLU444     -0.1245
    144  CA        49.8370   22.3100   24.4090 C.3   444  GLU444      0.1567
    145  C         48.9710   21.1490   23.9160 C.2   444  GLU444      0.2260
    146  O         48.0910   20.6930   24.6390 O.2   444  GLU444     -0.2867
    147  CB        48.9730   23.5490   24.6210 C.3   444  GLU444      0.0388
    148  CG        49.7760   24.7180   25.1340 C.3   444  GLU444      0.1160
    149  CD        48.9300   25.9440   25.3540 C.2   444  GLU444      0.3649
    150  OE1       48.2060   25.9950   26.3710 O.co2 444  GLU444     -0.2457
    151  OE2       48.9810   26.8450   24.4940 O.co2 444  GLU444     -0.2457
@<TRIPOS>BOND
     1    92    91    2
     2    91    90    1
     3    90    93    1
     4    90    89    1
     5    93    94    1
     6   138   137    2
     7    15    14    2
     8    14    13    1
     9   132   133    1
    10   132   129    1
    11   133   134    1
    12    43    44    2
    13    43    42    1
    14   137   136    1
    15    94    96   ar
    16    94    95   ar
    17    13    12    1
    18    13    16    1
    19   129   130    1
    20   129   128    1
    21    96    98   ar
    22   135   130   am
    23   135   136    1
    24     4     3    2
    25    33    34    1
    26   134   128    1
    27    25    24    2
    28    36    35    2
    29     3     2    1
    30   130   131    2
    31   139   136    1
    32   139   140    1
    33    61    62    2
    34    61    60    1
    35    24    23    1
    36    42    41    1
    37    42    45    1
    38    35    41   am
    39    35    34    1
    40    95    97   ar
    41    51    52    1
    42    34    37    1
    43   128   121   am
    44    16    17    1
    45   141   140    1
    46    22    23    1
    47    79    80    2
    48    79    78    1
    49     1     2    1
    50    65    66    1
    51     2     5    1
    52    54    53    2
    53    98    99   ar
    54    23    26    1
    55   140   142    1
    56    53    52    1
    57    53    59   am
    58    52    55    1
    59    59    60    1
    60    60    63    1
    61    83    84    2
    62    83    82    1
    63    45    46    1
    64   143   144    1
    65    97    99   ar
    66   121   122    2
    67   121   120    1
    68    66    67    1
    69    66    69    1
    70    67    68    2
    71    67    77   am
    72    77    78    1
    73   145   144    1
    74   145   146    2
    75    17    19   ar
    76    17    18   ar
    77    37    38    1
    78    81    82    1
    79    82    85    1
    80     5     6    1
    81   144   147    1
    82    26    27    1
    83   151   149   ar
    84    39    38   ar
    85    63    64    1
    86     6     7    1
    87    19    21   ar
    88    55    56    1
    89   147   148    1
    90    38    40   ar
    91    46    47   ar
    92    46    48   ar
    93    18    20   ar
    94   120   123    1
    95   120   119    1
    96    27    28    1
    97    57    56   ar
    98   123   124    1
    99   148   149    1
   100    47    49   ar
   101   125   124    1
   102   125   126    1
   103    69    70    1
   104   127   126    1
   105    56    58   ar
   106   149   150   ar
   107    48    50   ar
   108    21    20   ar
   109    87    86    2
   110    85    86    1
   111     7     8    1
   112   119   117   am
   113     8     9    2
   114    28    29    1
   115    86    88   am
   116    49    50   ar
   117    70    72   ar
   118    70    71   ar
   119    29    30    2
   120   118   117    2
   121    72    74   ar
   122   117   116    1
   123     9    11    1
   124     9    10    1
   125    71    73   ar
   126   111   110    2
   127    30    32    1
   128    30    31    1
   129    74    75   ar
   130    73    75   ar
   131   116   115    1
   132   106   105    1
   133   110   115   am
   134   110   109    1
   135   108   109    1
   136    75    76    1
   137   109   112    1
   138   113   112    1
   139   105   104    1
   140   105   107    1
   141   112   114    1
   142   104   101    1
   143   101   100    1
   144   101   102    1
   145   103   102    2
