@<TRIPOS>MOLECULE
tmp/1dbmB00.pdb
 116 116 0 0 0
SMALL
GASTEIGER

@<TRIPOS>ATOM
      1  N        -29.2370   46.3910   -9.5060 N.3    33  GLY33      -0.1225
      2  CA       -29.0040   45.0600   -8.9440 C.3    33  GLY33       0.1811
      3  C        -29.0110   45.1490   -7.4260 C.2    33  GLY33       0.2280
      4  O        -28.7530   46.2380   -6.8960 O.2    33  GLY33      -0.2866
      5  N        -26.8090   44.1450   -4.5250 N.3    35  ASN35      -0.1240
      6  CA       -25.5270   43.5490   -4.1630 C.3    35  ASN35       0.1653
      7  C        -25.5120   43.4160   -2.6660 C.2    35  ASN35       0.2266
      8  O        -26.0530   44.2850   -1.9820 O.2    35  ASN35      -0.2867
      9  CB       -24.3630   44.4270   -4.5300 C.3    35  ASN35       0.1155
     10  CG       -24.2020   44.6380   -6.0070 C.2    35  ASN35       0.2627
     11  OD1      -23.4680   43.9600   -6.6880 O.2    35  ASN35      -0.2716
     12  ND2      -24.8870   45.6030   -6.5670 N.am   35  ASN35      -0.0877
     13  N        -17.3540   41.7870   -0.4860 N.3    47  TRP47      -0.1241
     14  CA       -18.5010   41.8750   -1.3640 C.3    47  TRP47       0.1605
     15  C        -18.9240   40.4000   -1.5090 C.2    47  TRP47       0.2264
     16  O        -18.1020   39.5580   -1.9130 O.2    47  TRP47      -0.2867
     17  CB       -18.0390   42.3840   -2.7170 C.3    47  TRP47       0.0550
     18  CG       -19.1590   42.5970   -3.7150 C.ar   47  TRP47       0.0003
     19  CD1      -19.8430   43.7620   -3.6970 C.ar   47  TRP47       0.0946
     20  CD2      -19.4890   41.7730   -4.7660 C.ar   47  TRP47       0.0152
     21  NE1      -20.5870   43.6960   -4.7500 N.ar   47  TRP47      -0.2442
     22  CE2      -20.4120   42.5470   -5.4140 C.ar   47  TRP47       0.0810
     23  CE3      -19.1580   40.5390   -5.3150 C.ar   47  TRP47       0.0012
     24  CZ2      -21.0100   42.1190   -6.5850 C.ar   47  TRP47       0.0191
     25  CZ3      -19.7500   40.1120   -6.4960 C.ar   47  TRP47       0.0001
     26  CH2      -20.6750   40.9050   -7.1290 C.ar   47  TRP47       0.0015
     27  N        -24.7440   39.1180   -5.4200 N.3    50  TRP50      -0.1241
     28  CA       -25.5670   40.0700   -6.1800 C.3    50  TRP50       0.1605
     29  C        -26.7780   39.3380   -6.7240 C.2    50  TRP50       0.2264
     30  O        -26.6930   38.1420   -7.0240 O.2    50  TRP50      -0.2867
     31  CB       -24.7650   40.6530   -7.3410 C.3    50  TRP50       0.0550
     32  CG       -25.4830   41.2130   -8.5690 C.ar   50  TRP50       0.0003
     33  CD1      -26.5430   42.1240   -8.5650 C.ar   50  TRP50       0.0946
     34  CD2      -25.1150   40.8800   -9.8310 C.ar   50  TRP50       0.0152
     35  NE1      -26.8540   42.3650   -9.8290 N.ar   50  TRP50      -0.2442
     36  CE2      -26.0210   41.6350  -10.5710 C.ar   50  TRP50       0.0810
     37  CE3      -24.1610   40.0480  -10.3440 C.ar   50  TRP50       0.0012
     38  CZ2      -25.9950   41.6020  -11.9060 C.ar   50  TRP50       0.0191
     39  CZ3      -24.1440   40.0050  -11.6910 C.ar   50  TRP50       0.0001
     40  CH2      -25.0300   40.7800  -12.4190 C.ar   50  TRP50       0.0015
     41  N        -29.5890   40.1480   -9.6310 N.3    52  ASN52      -0.1240
     42  CA       -30.1800   40.9800  -10.6660 C.3    52  ASN52       0.1653
     43  C        -31.6350   40.6180  -10.8460 C.2    52  ASN52       0.2266
     44  O        -31.9860   39.4830  -11.2210 O.2    52  ASN52      -0.2867
     45  CB       -29.4290   40.7890  -11.9520 C.3    52  ASN52       0.1155
     46  CG       -30.2280   40.8700  -13.2730 C.2    52  ASN52       0.2627
     47  OD1      -31.1480   41.6610  -13.5040 O.2    52  ASN52      -0.2716
     48  ND2      -30.0340   39.9930  -14.2280 N.am   52  ASN52      -0.0877
     49  N        -33.6900   41.4370  -13.2980 N.3    54  TYR54      -0.1227
     50  CA       -34.2150   41.0470  -14.6080 C.3    54  TYR54       0.1736
     51  C        -34.2710   39.5030  -14.5110 C.2    54  TYR54       0.2596
     52  O        -35.2530   38.8310  -14.2070 O.2    54  TYR54      -0.2718
     53  CB       -33.2760   41.3800  -15.7900 C.3    54  TYR54       0.0548
     54  CG       -32.9340   42.8200  -16.0930 C.ar   54  TYR54      -0.0200
     55  CD1      -33.8780   43.8460  -16.0260 C.ar   54  TYR54      -0.0009
     56  CD2      -31.6260   43.1200  -16.4390 C.ar   54  TYR54      -0.0009
     57  CE1      -33.4960   45.1610  -16.3390 C.ar   54  TYR54       0.0417
     58  CE2      -31.2390   44.4290  -16.7530 C.ar   54  TYR54       0.0417
     59  CZ       -32.1770   45.4470  -16.6880 C.ar   54  TYR54       0.1957
     60  OH       -31.7970   46.7430  -17.0020 O.3    54  TYR54      -0.2866
     61  N        -33.0790   38.9350  -14.5340 N.am   55  THR55      -0.1953
     62  CA       -32.9530   37.5180  -14.6430 C.3    55  THR55       0.1897
     63  C        -33.5220   36.6550  -13.5580 C.2    55  THR55       0.2313
     64  O        -33.8450   35.4990  -13.8120 O.2    55  THR55      -0.2863
     65  CB       -31.5030   37.2030  -14.7590 C.3    55  THR55       0.1794
     66  OG1      -30.8840   37.7070  -13.5460 O.3    55  THR55      -0.2208
     67  CG2      -30.9240   37.7570  -16.0730 C.3    55  THR55       0.0378
     68  N        -26.9370   48.5960   -6.7870 N.3    99  GLY99      -0.1210
     69  CA       -25.8510   48.7590   -7.7260 C.3    99  GLY99       0.1956
     70  C        -26.3680   49.1030   -9.0990 C.2    99  GLY99       0.2612
     71  O        -27.4560   48.6760   -9.4650 O.2    99  GLY99      -0.2717
     72  N        -25.6090   49.7580   -9.9590 N.am  100  ASP100     -0.1959
     73  CA       -26.1130   50.1990  -11.2440 C.3   100  ASP100      0.1840
     74  C        -25.4980   49.5650  -12.5050 C.2   100  ASP100      0.2622
     75  O        -24.3460   49.1520  -12.5100 O.2   100  ASP100     -0.2715
     76  CB       -25.9680   51.6920  -11.1620 C.3   100  ASP100      0.1450
     77  CG       -25.9650   52.3610  -12.4950 C.2   100  ASP100      0.3671
     78  OD1      -26.9980   52.5160  -13.1390 O.co2 100  ASP100     -0.2456
     79  OD2      -24.8760   52.7010  -12.8920 O.co2 100  ASP100     -0.2456
     80  N        -26.2140   49.5000  -13.6340 N.am  101  TYR101     -0.1974
     81  CA       -25.7700   48.7730  -14.8330 C.3   101  TYR101      0.1639
     82  C        -24.8610   49.5080  -15.8190 C.2   101  TYR101      0.2290
     83  O        -24.2020   48.8810  -16.6480 O.2   101  TYR101     -0.2864
     84  CB       -27.0160   48.2680  -15.5690 C.3   101  TYR101      0.0560
     85  CG       -27.7490   47.0820  -14.9270 C.ar  101  TYR101     -0.0198
     86  CD1      -27.1870   45.8290  -15.0040 C.ar  101  TYR101     -0.0009
     87  CD2      -28.9640   47.2360  -14.2860 C.ar  101  TYR101     -0.0009
     88  CE1      -27.8140   44.7350  -14.4670 C.ar  101  TYR101      0.0417
     89  CE2      -29.6030   46.1450  -13.7390 C.ar  101  TYR101      0.0417
     90  CZ       -29.0130   44.9020  -13.8400 C.ar  101  TYR101      0.1957
     91  OH       -29.6080   43.7820  -13.3020 O.3   101  TYR101     -0.2866
     92  N        -21.6130   51.0770  -12.6190 N.3   104  TRP104     -0.1241
     93  CA       -21.2000   50.0060  -11.7270 C.3   104  TRP104      0.1605
     94  C        -20.8280   50.2280  -10.2830 C.2   104  TRP104      0.2264
     95  O        -20.1160   49.4690   -9.6050 O.2   104  TRP104     -0.2867
     96  CB       -20.0620   49.3110  -12.4140 C.3   104  TRP104      0.0550
     97  CG       -20.4910   48.4330  -13.5580 C.ar  104  TRP104      0.0003
     98  CD1      -21.7820   48.0330  -13.6910 C.ar  104  TRP104      0.0946
     99  CD2      -19.6530   47.9050  -14.4990 C.ar  104  TRP104      0.0152
    100  NE1      -21.7640   47.2350  -14.7150 N.ar  104  TRP104     -0.2442
    101  CE2      -20.5280   47.1230  -15.2270 C.ar  104  TRP104      0.0810
    102  CE3      -18.3210   47.9360  -14.8510 C.ar  104  TRP104      0.0012
    103  CZ2      -20.1120   46.3640  -16.3050 C.ar  104  TRP104      0.0191
    104  CZ3      -17.9040   47.1800  -15.9250 C.ar  104  TRP104      0.0001
    105  CH2      -18.7880   46.4010  -16.6450 C.ar  104  TRP104      0.0015
    106  N        -22.0740   51.5220   -6.3470 N.3   106  PHE106     -0.1241
    107  CA       -23.1290   51.1540   -5.4300 C.3   106  PHE106      0.1605
    108  C        -23.5480   52.5030   -4.9100 C.2   106  PHE106      0.2264
    109  O        -22.7070   53.1550   -4.2940 O.2   106  PHE106     -0.2867
    110  CB       -22.5540   50.3040   -4.3260 C.3   106  PHE106      0.0534
    111  CG       -21.9440   48.9890   -4.7740 C.ar  106  PHE106     -0.0203
    112  CD1      -22.3220   48.3910   -5.9550 C.ar  106  PHE106     -0.0042
    113  CD2      -20.9950   48.4050   -3.9830 C.ar  106  PHE106     -0.0042
    114  CE1      -21.7370   47.2060   -6.3370 C.ar  106  PHE106     -0.0003
    115  CE2      -20.4120   47.2200   -4.3710 C.ar  106  PHE106     -0.0003
    116  CZ       -20.7750   46.6140   -5.5480 C.ar  106  PHE106     -0.0000
@<TRIPOS>BOND
     1    60    59    1
     2    58    59   ar
     3    58    56   ar
     4    59    57   ar
     5    83    82    2
     6   105   103   ar
     7   105   104   ar
     8    56    54   ar
     9    57    55   ar
    10   103   101   ar
    11    54    55   ar
    12    54    53    1
    13    67    65    1
    14   104   102   ar
    15    82    81    1
    16    53    50    1
    17    84    85    1
    18    84    81    1
    19   101   100   ar
    20   101    99   ar
    21    86    85   ar
    22    86    88   ar
    23    85    87   ar
    24   102    99   ar
    25    81    80    1
    26    65    62    1
    27    65    66    1
    28   100    98   ar
    29    62    61    1
    30    62    63    1
    31    50    51    1
    32    50    49    1
    33    61    51   am
    34    51    52    2
    35    99    97   ar
    36    88    90   ar
    37    87    89   ar
    38    48    46   am
    39    90    89   ar
    40    90    91    1
    41    64    63    2
    42    98    97   ar
    43    80    74   am
    44    97    96    1
    45    47    46    2
    46    46    45    1
    47    78    77   ar
    48    79    77   ar
    49    92    93    1
    50    75    74    2
    51    74    73    1
    52    77    76    1
    53    40    38   ar
    54    40    39   ar
    55    96    93    1
    56    45    42    1
    57    38    36   ar
    58    93    94    1
    59    39    37   ar
    60    73    76    1
    61    73    72    1
    62    44    43    2
    63    43    42    1
    64    42    41    1
    65    36    34   ar
    66    36    35   ar
    67    37    34   ar
    68    94    95    2
    69    72    70   am
    70    34    32   ar
    71    35    33   ar
    72     1     2    1
    73    71    70    2
    74    70    69    1
    75     2     3    1
    76    32    33   ar
    77    32    31    1
    78    69    68    1
    79     3     4    2
    80    31    28    1
    81    26    24   ar
    82    26    25   ar
    83    30    29    2
    84    29    28    1
    85    11    10    2
    86    24    22   ar
    87    12    10   am
    88    25    23   ar
    89   106   107    1
    90   114   112   ar
    91   114   116   ar
    92    28    27    1
    93    10     9    1
    94   112   111   ar
    95   116   115   ar
    96   107   108    1
    97   107   110    1
    98    22    20   ar
    99    22    21   ar
   100    23    20   ar
   101   108   109    2
   102   111   110    1
   103   111   113   ar
   104    20    18   ar
   105    21    19   ar
   106     9     6    1
   107     5     6    1
   108   115   113   ar
   109     6     7    1
   110    18    19   ar
   111    18    17    1
   112    17    14    1
   113     7     8    2
   114    16    15    2
   115    15    14    1
   116    14    13    1
