@<TRIPOS>MOLECULE
tmp/1dbnA02.pdb
 130 126 0 0 0
SMALL
GASTEIGER

@<TRIPOS>ATOM
      1  N         25.6290   23.8610   50.5700 N.3    45  TYR45      -0.1241
      2  CA        26.9070   23.4540   51.1460 C.3    45  TYR45       0.1605
      3  C         27.2060   21.9670   51.0520 C.2    45  TYR45       0.2264
      4  O         27.4870   21.3130   52.0510 O.2    45  TYR45      -0.2867
      5  CB        26.9990   23.9220   52.6050 C.3    45  TYR45       0.0534
      6  CG        26.9050   25.4220   52.7330 C.ar   45  TYR45      -0.0201
      7  CD1       25.7250   26.0350   53.1650 C.ar   45  TYR45      -0.0009
      8  CD2       27.9670   26.2390   52.3340 C.ar   45  TYR45      -0.0009
      9  CE1       25.6000   27.4230   53.1900 C.ar   45  TYR45       0.0417
     10  CE2       27.8550   27.6310   52.3570 C.ar   45  TYR45       0.0417
     11  CZ        26.6680   28.2140   52.7830 C.ar   45  TYR45       0.1957
     12  OH        26.5510   29.5830   52.7860 O.3    45  TYR45      -0.2866
     13  N         22.4550   33.6400   39.9640 N.3    84  ILE84      -0.1245
     14  CA        23.7290   33.4920   40.6460 C.3    84  ILE84       0.1561
     15  C         23.7900   32.1000   41.2260 C.2    84  ILE84       0.2260
     16  O         23.0020   31.7470   42.0960 O.2    84  ILE84      -0.2867
     17  CB        23.9060   34.5310   41.7650 C.3    84  ILE84       0.0252
     18  CG1       24.0790   35.9180   41.1420 C.3    84  ILE84       0.0019
     19  CG2       25.1070   34.1700   42.6330 C.3    84  ILE84       0.0019
     20  CD1       24.3120   37.0180   42.1350 C.3    84  ILE84       0.0001
     21  N         26.4750   28.5410   42.3730 N.3    86  SER86      -0.1202
     22  CA        27.7590   28.1460   42.9410 C.3    86  SER86       0.2020
     23  C         27.7380   26.6430   43.1950 C.2    86  SER86       0.2618
     24  O         26.6860   26.0800   43.4730 O.2    86  SER86      -0.2717
     25  CB        27.9910   28.8790   44.2600 C.3    86  SER86       0.2103
     26  OG        26.8830   28.7030   45.1250 O.3    86  SER86      -0.2182
     27  N         28.8900   25.9870   43.1000 N.am   87  ASP87      -0.1973
     28  CA        30.1600   26.6300   42.7670 C.3    87  ASP87       0.1709
     29  C         30.6920   26.1320   41.4320 C.2    87  ASP87       0.2293
     30  O         31.4390   26.8350   40.7480 O.2    87  ASP87      -0.2864
     31  CB        31.1880   26.3330   43.8550 C.3    87  ASP87       0.1436
     32  CG        31.2030   27.3770   44.9320 C.2    87  ASP87       0.3671
     33  OD1       31.7210   28.4740   44.6640 O.co2  87  ASP87      -0.2456
     34  OD2       30.6950   27.1140   46.0390 O.co2  87  ASP87      -0.2456
     35  N         37.7400   22.0330   55.9510 N.3   103  GLY103     -0.1210
     36  CA        37.5010   23.4700   55.9630 C.3   103  GLY103      0.1956
     37  C         36.5780   24.0400   54.8980 C.2   103  GLY103      0.2613
     38  O         35.7800   23.3250   54.2930 O.2   103  GLY103     -0.2717
     39  N         36.6870   25.3470   54.6760 N.am  104  SER104     -0.1938
     40  CA        35.8790   26.0430   53.6780 C.3   104  SER104      0.2055
     41  C         36.4030   25.6460   52.3050 C.2   104  SER104      0.2643
     42  O         37.3890   26.2030   51.8180 O.2   104  SER104     -0.2714
     43  CB        36.0110   27.5540   53.8660 C.3   104  SER104      0.2130
     44  OG        35.7440   27.9190   55.2100 O.3   104  SER104     -0.2179
     45  N         35.7300   24.7020   51.6630 N.am  105  VAL105     -0.1963
     46  CA        36.2120   24.2320   50.3830 C.3   105  VAL105      0.1727
     47  C         35.2460   24.3560   49.1980 C.2   105  VAL105      0.2617
     48  O         35.5440   23.9000   48.0920 O.2   105  VAL105     -0.2715
     49  CB        36.6750   22.7740   50.5360 C.3   105  VAL105      0.0290
     50  CG1       35.4790   21.8560   50.6680 C.3   105  VAL105      0.0023
     51  CG2       37.5510   22.3900   49.3710 C.3   105  VAL105      0.0023
     52  N         34.1000   24.9900   49.4140 N.am  106  SER106     -0.1936
     53  CA        33.1230   25.1480   48.3420 C.3   106  SER106      0.2055
     54  C         33.5820   26.0740   47.2060 C.2   106  SER106      0.2642
     55  O         33.3750   25.7710   46.0300 O.2   106  SER106     -0.2714
     56  CB        31.7980   25.6390   48.9220 C.3   106  SER106      0.2130
     57  OG        31.2720   24.6860   49.8300 O.3   106  SER106     -0.2179
     58  N         34.2010   27.2010   47.5460 N.am  107  LYS107     -0.1977
     59  CA        34.6800   28.1230   46.5200 C.3   107  LYS107      0.1596
     60  C         35.9460   27.5700   45.8460 C.2   107  LYS107      0.2287
     61  O         36.5040   28.1910   44.9300 O.2   107  LYS107     -0.2864
     62  CB        34.9520   29.5080   47.1230 C.3   107  LYS107      0.0298
     63  CG        35.9600   29.5270   48.2550 C.3   107  LYS107      0.0038
     64  CD        36.1630   30.9460   48.7700 C.3   107  LYS107      0.0206
     65  CE        37.1070   30.9840   49.9630 C.3   107  LYS107      0.1093
     66  NZ        36.5880   30.1860   51.1150 N.3   107  LYS107     -0.1314
     67  N         30.5190   30.2410   39.7380 N.3   131  TYR131     -0.1241
     68  CA        30.4930   31.4020   40.6220 C.3   131  TYR131      0.1605
     69  C         31.7690   32.2240   40.4810 C.2   131  TYR131      0.2264
     70  O         32.8660   31.7270   40.7280 O.2   131  TYR131     -0.2867
     71  CB        30.3070   30.9630   42.0780 C.3   131  TYR131      0.0534
     72  CG        30.1450   32.1320   43.0200 C.ar  131  TYR131     -0.0201
     73  CD1       31.2500   32.8550   43.4710 C.ar  131  TYR131     -0.0009
     74  CD2       28.8810   32.5600   43.4080 C.ar  131  TYR131     -0.0009
     75  CE1       31.0930   33.9720   44.2810 C.ar  131  TYR131      0.0417
     76  CE2       28.7150   33.6740   44.2140 C.ar  131  TYR131      0.0417
     77  CZ        29.8210   34.3730   44.6480 C.ar  131  TYR131      0.1957
     78  OH        29.6490   35.4650   45.4670 O.3   131  TYR131     -0.2866
     79  N         34.0590   36.6270   47.0880 N.3   136  TYR136     -0.1227
     80  CA        34.4020   35.3100   47.6240 C.3   136  TYR136      0.1736
     81  C         35.4060   34.5550   46.7680 C.2   136  TYR136      0.2595
     82  O         36.1420   33.6980   47.2680 O.2   136  TYR136     -0.2718
     83  CB        33.1400   34.4590   47.8050 C.3   136  TYR136      0.0548
     84  CG        32.3600   34.8180   49.0440 C.ar  136  TYR136     -0.0200
     85  CD1       31.4880   35.9140   49.0570 C.ar  136  TYR136     -0.0009
     86  CD2       32.5540   34.1120   50.2310 C.ar  136  TYR136     -0.0009
     87  CE1       30.8330   36.3010   50.2290 C.ar  136  TYR136      0.0417
     88  CE2       31.9090   34.4890   51.4060 C.ar  136  TYR136      0.0417
     89  CZ        31.0540   35.5830   51.4010 C.ar  136  TYR136      0.1957
     90  OH        30.4520   35.9620   52.5770 O.3   136  TYR136     -0.2866
     91  N         35.4200   34.8650   45.4770 N.am  137  ASP137     -0.1974
     92  CA        36.3370   34.2300   44.5370 C.3   137  ASP137      0.1709
     93  C         37.0970   35.3290   43.7850 C.2   137  ASP137      0.2293
     94  O         36.9630   35.4730   42.5680 O.2   137  ASP137     -0.2864
     95  CB        35.5720   33.3510   43.5360 C.3   137  ASP137      0.1436
     96  CG        34.6710   32.3270   44.2110 C.2   137  ASP137      0.3671
     97  OD1       34.4880   31.2270   43.6480 O.co2 137  ASP137     -0.2456
     98  OD2       34.1290   32.6140   45.2920 O.co2 137  ASP137     -0.2456
     99  N         27.2410   25.9160   47.4830 N.3   220  GLY220     -0.1210
    100  CA        27.4430   26.8930   48.5410 C.3   220  GLY220      0.1956
    101  C         26.2020   27.4340   49.2250 C.2   220  GLY220      0.2611
    102  O         25.4470   26.6950   49.8600 O.2   220  GLY220     -0.2717
    103  N         26.0060   28.7420   49.1010 N.am  221  TYR221     -0.1976
    104  CA        24.8600   29.4140   49.6950 C.3   221  TYR221      0.1639
    105  C         23.5500   28.8760   49.1150 C.2   221  TYR221      0.2290
    106  O         23.4100   28.7310   47.9010 O.2   221  TYR221     -0.2864
    107  CB        24.9590   30.9170   49.4480 C.3   221  TYR221      0.0560
    108  CG        24.0320   31.7190   50.3180 C.ar  221  TYR221     -0.0198
    109  CD1       24.2680   31.8430   51.6900 C.ar  221  TYR221     -0.0009
    110  CD2       22.8970   32.3280   49.7830 C.ar  221  TYR221     -0.0009
    111  CE1       23.3980   32.5510   52.5040 C.ar  221  TYR221      0.0417
    112  CE2       22.0180   33.0370   50.5890 C.ar  221  TYR221      0.0417
    113  CZ        22.2740   33.1460   51.9480 C.ar  221  TYR221      0.1957
    114  OH        21.4100   33.8510   52.7530 O.3   221  TYR221     -0.2866
    115  N         20.5290   30.0070   48.2760 N.3   223  THR223     -0.1203
    116  CA        19.8280   30.6550   47.1720 C.3   223  THR223      0.1994
    117  C         20.5400   30.5440   45.8310 C.2   223  THR223      0.2617
    118  O         20.0370   31.0280   44.8150 O.2   223  THR223     -0.2717
    119  CB        19.5950   32.1520   47.4500 C.3   223  THR223      0.1784
    120  OG1       20.8550   32.8180   47.5600 O.3   223  THR223     -0.2211
    121  CG2       18.8160   32.3370   48.7350 C.3   223  THR223      0.0376
    122  N         21.6990   29.8960   45.8230 N.am  224  GLU224     -0.1979
    123  CA        22.4840   29.7600   44.6040 C.3   224  GLU224      0.1602
    124  C         22.7930   28.3050   44.2370 C.2   224  GLU224      0.2287
    125  O         23.5860   28.0340   43.3320 O.2   224  GLU224     -0.2864
    126  CB        23.7800   30.5570   44.7670 C.3   224  GLU224      0.0415
    127  CG        23.5440   32.0420   45.0220 C.3   224  GLU224      0.1163
    128  CD        24.7600   32.7570   45.5810 C.2   224  GLU224      0.3649
    129  OE1       24.6810   33.9910   45.7740 O.co2 224  GLU224     -0.2457
    130  OE2       25.7880   32.0890   45.8320 O.co2 224  GLU224     -0.2457
@<TRIPOS>BOND
     1    67    68    1
     2    13    14    1
     3    69    68    1
     4    69    70    2
     5    68    71    1
     6    14    15    1
     7    14    17    1
     8    30    29    2
     9    18    17    1
    10    18    20    1
    11    15    16    2
    12    29    28    1
    13    17    19    1
    14    71    72    1
    15    21    22    1
    16    94    93    2
    17    28    27    1
    18    28    31    1
    19    22    23    1
    20    22    25    1
    21    72    74   ar
    22    72    73   ar
    23    27    23   am
    24    23    24    2
    25   125   124    2
    26    74    76   ar
    27    73    75   ar
    28    95    96    1
    29    95    92    1
    30    97    96   ar
    31    93    92    1
    32    31    32    1
    33    96    98   ar
    34    76    77   ar
    35   124   123    1
    36    25    26    1
    37    75    77   ar
    38    92    91    1
    39   123   126    1
    40   123   122    1
    41    77    78    1
    42    33    32   ar
    43   126   127    1
    44   118   117    2
    45    61    60    2
    46    32    34   ar
    47   127   128    1
    48    91    81   am
    49   128   129   ar
    50   128   130   ar
    51   122   117   am
    52   117   116    1
    53    60    59    1
    54    55    54    2
    55    59    62    1
    56    59    58    1
    57    81    82    2
    58    81    80    1
    59    79    80    1
    60    62    63    1
    61   116   119    1
    62   116   115    1
    63    54    58   am
    64    54    53    1
    65   119   120    1
    66   119   121    1
    67    99   100    1
    68    80    83    1
    69    83    84    1
    70   106   105    2
    71    48    47    2
    72    63    64    1
    73    53    56    1
    74    53    52    1
    75   100   101    1
    76    64    65    1
    77    56    57    1
    78    84    85   ar
    79    84    86   ar
    80    85    87   ar
    81   103   101   am
    82   103   104    1
    83   105   104    1
    84    47    52   am
    85    47    46    1
    86   101   102    2
    87    51    49    1
    88   107   104    1
    89   107   108    1
    90   110   108   ar
    91   110   112   ar
    92    65    66    1
    93    87    89   ar
    94    86    88   ar
    95   108   109   ar
    96    46    49    1
    97    46    45    1
    98    49    50    1
    99     1     2    1
   100   112   113   ar
   101     3     2    1
   102     3     4    2
   103     2     5    1
   104    89    88   ar
   105    89    90    1
   106    45    41   am
   107   109   111   ar
   108    42    41    2
   109   113   111   ar
   110   113   114    1
   111    41    40    1
   112     8    10   ar
   113     8     6   ar
   114    10    11   ar
   115     5     6    1
   116     6     7   ar
   117    11    12    1
   118    11     9   ar
   119     7     9   ar
   120    40    43    1
   121    40    39    1
   122    43    44    1
   123    38    37    2
   124    39    37   am
   125    37    36    1
   126    35    36    1
