@<TRIPOS>MOLECULE
tmp/1dbtA00.pdb
 166 155 0 0 0
SMALL
GASTEIGER

@<TRIPOS>ATOM
      1  N         70.7890   58.3180   30.9610 N.3     9  ALA9       -0.1245
      2  CA        70.1400   59.3570   30.1590 C.3     9  ALA9        0.1562
      3  C         70.8440   60.6950   30.3470 C.2     9  ALA9        0.2260
      4  O         70.7660   61.3040   31.4200 O.2     9  ALA9       -0.2867
      5  CB        68.6590   59.4740   30.5270 C.3     9  ALA9        0.0290
      6  N         70.5180   63.8980   29.8860 N.3    11  ASP11      -0.1239
      7  CA        69.5580   64.9830   29.7160 C.3    11  ASP11       0.1674
      8  C         70.1030   66.3080   30.2370 C.2    11  ASP11       0.2266
      9  O         69.7880   66.7600   31.3410 O.2    11  ASP11      -0.2867
     10  CB        68.2260   64.5890   30.3600 C.3    11  ASP11       0.1410
     11  CG        67.5890   63.3800   29.6780 C.2    11  ASP11       0.3668
     12  OD1       68.0430   63.0050   28.5730 O.co2  11  ASP11      -0.2456
     13  OD2       66.6290   62.8110   30.2370 O.co2  11  ASP11      -0.2456
     14  N         72.7460   57.5060   26.7870 N.3    33  LYS33      -0.1245
     15  CA        71.5860   57.8620   25.9770 C.3    33  LYS33       0.1561
     16  C         71.5470   59.3630   25.6870 C.2    33  LYS33       0.2260
     17  O         71.5760   60.1870   26.6040 O.2    33  LYS33      -0.2867
     18  CB        70.2780   57.4390   26.6590 C.3    33  LYS33       0.0271
     19  CG        69.0270   57.6620   25.8210 C.3    33  LYS33       0.0035
     20  CD        67.7460   57.2210   26.5230 C.3    33  LYS33       0.0206
     21  CE        67.1080   58.3380   27.3260 C.3    33  LYS33       0.1093
     22  NZ        66.6590   59.5040   26.5330 N.3    33  LYS33      -0.1314
     23  N         69.2520   62.1750   24.0850 N.3    35  GLY35      -0.1225
     24  CA        67.8620   62.4280   23.7570 C.3    35  GLY35       0.1811
     25  C         67.7000   63.6920   22.9460 C.2    35  GLY35       0.2280
     26  O         68.6800   64.2250   22.4260 O.2    35  GLY35      -0.2866
     27  N         72.8150   55.1000   22.7440 N.3    58  PHE58      -0.1241
     28  CA        71.3900   55.0010   22.4630 C.3    58  PHE58       0.1605
     29  C         71.0090   56.4250   22.0430 C.2    58  PHE58       0.2264
     30  O         71.1460   57.3690   22.8170 O.2    58  PHE58      -0.2867
     31  CB        70.6240   54.5560   23.7390 C.3    58  PHE58       0.0534
     32  CG        69.0900   54.4130   23.5940 C.ar   58  PHE58      -0.0203
     33  CD1       68.3290   54.0860   24.7320 C.ar   58  PHE58      -0.0042
     34  CD2       68.4020   54.5960   22.3670 C.ar   58  PHE58      -0.0042
     35  CE1       66.9130   53.9490   24.6640 C.ar   58  PHE58      -0.0003
     36  CE2       66.9840   54.4610   22.2810 C.ar   58  PHE58      -0.0003
     37  CZ        66.2410   54.1400   23.4350 C.ar   58  PHE58      -0.0000
     38  N         68.0480   58.3090   21.3530 N.3    60  ASP60      -0.1239
     39  CA        66.6140   58.3310   21.6300 C.3    60  ASP60       0.1674
     40  C         65.8830   59.5270   21.0050 C.2    60  ASP60       0.2266
     41  O         65.4670   60.4470   21.7120 O.2    60  ASP60      -0.2867
     42  CB        66.4430   58.3100   23.1560 C.3    60  ASP60       0.1410
     43  CG        65.0110   58.0790   23.6180 C.2    60  ASP60       0.3668
     44  OD1       64.1460   57.6880   22.8070 O.co2  60  ASP60      -0.2456
     45  OD2       64.7530   58.3120   24.8210 O.co2  60  ASP60      -0.2456
     46  N         63.1070   59.0980   18.8690 N.3    62  LYS62      -0.1245
     47  CA        61.7120   58.6660   18.6840 C.3    62  LYS62       0.1561
     48  C         61.0340   59.1500   17.4000 C.2    62  LYS62       0.2260
     49  O         60.0090   59.8420   17.4500 O.2    62  LYS62      -0.2867
     50  CB        60.8710   59.0850   19.8910 C.3    62  LYS62       0.0271
     51  CG        61.3700   58.5820   21.1930 C.3    62  LYS62       0.0035
     52  CD        60.3970   58.9340   22.2570 C.3    62  LYS62       0.0206
     53  CE        60.8450   58.3920   23.5550 C.3    62  LYS62       0.1093
     54  NZ        62.0640   59.0550   24.0670 N.3    62  LYS62      -0.1314
     55  N         58.8600   52.6330   20.4310 N.3   119  VAL119     -0.1245
     56  CA        58.2040   53.1190   21.6390 C.3   119  VAL119      0.1561
     57  C         56.7380   52.6920   21.5410 C.2   119  VAL119      0.2260
     58  O         56.0900   52.9010   20.5140 O.2   119  VAL119     -0.2867
     59  CB        58.3030   54.6700   21.7960 C.3   119  VAL119      0.0252
     60  CG1       57.6800   55.1200   23.1140 C.3   119  VAL119      0.0019
     61  CG2       59.7550   55.1160   21.7300 C.3   119  VAL119      0.0019
     62  N         53.9830   52.7680   24.5680 N.3   121  GLN121     -0.1231
     63  CA        53.2920   53.8610   25.2440 C.3   121  GLN121      0.1698
     64  C         54.3340   54.4070   26.1830 C.2   121  GLN121      0.2592
     65  O         54.9760   53.6420   26.9100 O.2   121  GLN121     -0.2718
     66  CB        52.0660   53.4080   26.0500 C.3   121  GLN121      0.0381
     67  CG        50.8000   53.1070   25.2320 C.3   121  GLN121      0.0905
     68  CD        50.3180   54.2710   24.3810 C.2   121  GLN121      0.2608
     69  OE1       50.1510   55.3940   24.8650 O.2   121  GLN121     -0.2717
     70  NE2       50.0660   53.9970   23.1040 N.am  121  GLN121     -0.0878
     71  N         54.5320   55.7220   26.1370 N.am  122  LEU122     -0.1966
     72  CA        55.4980   56.4150   26.9920 C.3   122  LEU122      0.1728
     73  C         55.2650   56.1170   28.4770 C.2   122  LEU122      0.2617
     74  O         54.1130   55.9730   28.9160 O.2   122  LEU122     -0.2715
     75  CB        55.4350   57.9190   26.7400 C.3   122  LEU122      0.0311
     76  CG        55.7790   58.3760   25.3210 C.3   122  LEU122      0.0022
     77  CD1       55.2110   59.7660   25.0800 C.3   122  LEU122      0.0001
     78  CD2       57.2880   58.3420   25.0940 C.3   122  LEU122      0.0001
     79  N         56.3610   55.9850   29.2290 N.am  123  THR123     -0.1937
     80  CA        56.3070   55.6770   30.6640 C.3   123  THR123      0.2028
     81  C         55.6340   56.7720   31.5150 C.2   123  THR123      0.2642
     82  O         55.3560   56.5740   32.6990 O.2   123  THR123     -0.2714
     83  CB        57.7170   55.3460   31.2210 C.3   123  THR123      0.1808
     84  OG1       58.6060   56.4330   30.9450 O.3   123  THR123     -0.2208
     85  CG2       58.2720   54.0880   30.5790 C.3   123  THR123      0.0379
     86  N         55.3370   57.8990   30.8690 N.am  124  SER124     -0.1949
     87  CA        54.6760   59.0410   31.4890 C.3   124  SER124      0.1924
     88  C         53.1810   59.1110   31.1630 C.2   124  SER124      0.2314
     89  O         52.4820   60.0260   31.6200 O.2   124  SER124     -0.2863
     90  CB        55.3270   60.3150   31.0000 C.3   124  SER124      0.2116
     91  OG        55.2400   60.3910   29.5860 O.3   124  SER124     -0.2180
     92  N         60.4430   49.9540   23.6390 N.3   160  VAL160     -0.1245
     93  CA        60.6310   50.8070   24.7990 C.3   160  VAL160      0.1561
     94  C         59.2490   50.6580   25.4590 C.2   160  VAL160      0.2260
     95  O         58.2150   50.8310   24.8080 O.2   160  VAL160     -0.2867
     96  CB        60.8690   52.3000   24.4480 C.3   160  VAL160      0.0252
     97  CG1       60.8160   53.1530   25.6970 C.3   160  VAL160      0.0019
     98  CG2       62.2060   52.4950   23.7890 C.3   160  VAL160      0.0019
     99  N         62.5270   52.5770   30.6610 N.3   182  PRO182     -0.2102
    100  CA        62.8050   53.8130   31.4020 C.3   182  PRO182      0.1504
    101  C         61.7710   53.8290   32.5460 C.2   182  PRO182      0.2576
    102  O         61.0330   52.8470   32.7250 O.2   182  PRO182     -0.2718
    103  CB        62.4890   54.9090   30.3850 C.3   182  PRO182      0.0282
    104  CG        62.6060   54.2390   29.0700 C.3   182  PRO182      0.0208
    105  CD        61.9790   52.9140   29.3340 C.3   182  PRO182      0.0893
    106  N         61.6670   54.9510   33.2620 N.am  183  GLY183     -0.1943
    107  CA        60.7420   55.0490   34.3830 C.3   183  GLY183      0.2014
    108  C         61.3270   54.2920   35.5590 C.2   183  GLY183      0.2639
    109  O         60.6430   53.5140   36.2260 O.2   183  GLY183     -0.2714
    110  N         62.6410   54.4400   35.7070 N.am  184  ILE184     -0.1963
    111  CA        63.4180   53.7910   36.7490 C.3   184  ILE184      0.1727
    112  C         63.8290   54.7980   37.8240 C.2   184  ILE184      0.2616
    113  O         64.3690   55.8660   37.5200 O.2   184  ILE184     -0.2715
    114  CB        64.6830   53.0960   36.1490 C.3   184  ILE184      0.0290
    115  CG1       64.3070   52.1380   35.0040 C.3   184  ILE184      0.0022
    116  CG2       65.4530   52.3480   37.2140 C.3   184  ILE184      0.0023
    117  CD1       63.3420   50.9940   35.3600 C.3   184  ILE184      0.0001
    118  N         63.5050   54.4660   39.0730 N.am  185  ARG185     -0.1977
    119  CA        63.8270   55.2950   40.2370 C.3   185  ARG185      0.1597
    120  C         64.2700   54.3990   41.3910 C.2   185  ARG185      0.2287
    121  O         63.9160   53.2260   41.4300 O.2   185  ARG185     -0.2864
    122  CB        62.5920   56.0770   40.7230 C.3   185  ARG185      0.0334
    123  CG        62.0440   57.1790   39.8140 C.3   185  ARG185      0.0492
    124  CD        63.0430   58.2920   39.5760 C.3   185  ARG185      0.2205
    125  NE        62.4820   59.3800   38.7770 N.pl3 185  ARG185     -0.0865
    126  CZ        62.4020   59.3910   37.4480 C.cat 185  ARG185      0.5346
    127  NH1       62.8320   58.3580   36.7240 N.pl3 185  ARG185      0.1354
    128  NH2       61.9570   60.4740   36.8370 N.pl3 185  ARG185      0.1354
    129  N         56.9330   60.5860   35.5070 N.3   194  GLN194     -0.1245
    130  CA        56.8050   59.1450   35.2530 C.3   194  GLN194      0.1566
    131  C         55.6480   58.5450   36.0360 C.2   194  GLN194      0.2260
    132  O         55.5320   58.7640   37.2470 O.2   194  GLN194     -0.2867
    133  CB        58.0970   58.3980   35.6310 C.3   194  GLN194      0.0367
    134  CG        59.3970   58.8940   34.9750 C.3   194  GLN194      0.0905
    135  CD        59.5500   58.4810   33.5130 C.2   194  GLN194      0.2608
    136  OE1       58.5890   58.0750   32.8580 O.2   194  GLN194     -0.2717
    137  NE2       60.7700   58.5770   33.0010 N.am  194  GLN194     -0.0878
    138  N         66.8720   52.2590   31.4820 N.3   212  VAL212     -0.1231
    139  CA        67.2840   53.6220   31.1810 C.3   212  VAL212      0.1692
    140  C         67.0680   54.4170   32.4620 C.2   212  VAL212      0.2592
    141  O         65.9520   54.4960   32.9660 O.2   212  VAL212     -0.2718
    142  CB        66.4890   54.2280   29.9930 C.3   212  VAL212      0.0266
    143  CG1       66.7680   55.7030   29.8450 C.3   212  VAL212      0.0020
    144  CG2       66.8230   53.5100   28.7080 C.3   212  VAL212      0.0020
    145  N         68.1590   54.9410   33.0180 N.am  213  VAL213     -0.1966
    146  CA        68.1080   55.7120   34.2570 C.3   213  VAL213      0.1727
    147  C         68.6430   57.1280   34.0350 C.2   213  VAL213      0.2617
    148  O         69.7740   57.3160   33.5750 O.2   213  VAL213     -0.2715
    149  CB        68.9200   55.0210   35.4040 C.3   213  VAL213      0.0290
    150  CG1       68.6200   55.6730   36.7350 C.3   213  VAL213      0.0023
    151  CG2       68.6110   53.5230   35.4900 C.3   213  VAL213      0.0023
    152  N         67.8210   58.1160   34.3810 N.am  214  GLY214     -0.1940
    153  CA        68.2080   59.5050   34.2310 C.3   214  GLY214      0.2014
    154  C         68.4580   60.2350   35.5380 C.2   214  GLY214      0.2638
    155  O         69.5370   60.1110   36.1350 O.2   214  GLY214     -0.2714
    156  N         67.4280   60.9490   35.9970 N.am  215  ARG215     -0.1977
    157  CA        67.4570   61.7700   37.2170 C.3   215  ARG215      0.1597
    158  C         67.8790   61.1220   38.5420 C.2   215  ARG215      0.2287
    159  O         68.4200   61.8040   39.4190 O.2   215  ARG215     -0.2864
    160  CB        66.1380   62.5380   37.3560 C.3   215  ARG215      0.0334
    161  CG        65.9900   63.6450   36.2980 C.3   215  ARG215      0.0492
    162  CD        64.5720   64.1470   36.1680 C.3   215  ARG215      0.2205
    163  NE        63.7200   63.2040   35.4400 N.pl3 215  ARG215     -0.0865
    164  CZ        62.5290   63.5040   34.9200 C.cat 215  ARG215      0.5346
    165  NH1       62.0270   64.7260   35.0450 N.pl3 215  ARG215      0.1354
    166  NH2       61.8440   62.5830   34.2510 N.pl3 215  ARG215      0.1354
@<TRIPOS>BOND
     1    48    49    2
     2    48    47    1
     3    47    46    1
     4    47    50    1
     5    50    51    1
     6    55    56    1
     7    58    57    2
     8    40    39    1
     9    40    41    2
    10    51    52    1
    11    38    39    1
    12    57    56    1
    13    39    42    1
    14    56    59    1
    15    61    59    1
    16    59    60    1
    17    29    28    1
    18    29    30    2
    19    52    53    1
    20    36    34   ar
    21    36    37   ar
    22    34    32   ar
    23    26    25    2
    24    28    27    1
    25    28    31    1
    26    44    43   ar
    27    25    24    1
    28    70    68   am
    29    42    43    1
    30    37    35   ar
    31    53    54    1
    32    32    31    1
    33    32    33   ar
    34    43    45   ar
    35    92    93    1
    36    24    23    1
    37    98    96    1
    38    68    69    2
    39    68    67    1
    40    96    93    1
    41    96    97    1
    42    62    63    1
    43    35    33   ar
    44    93    94    1
    45    95    94    2
    46    77    76    1
    47    78    76    1
    48    67    66    1
    49    63    66    1
    50    63    64    1
    51    76    75    1
    52    16    15    1
    53    16    17    2
    54    19    20    1
    55    19    18    1
    56    15    18    1
    57    15    14    1
    58    71    64   am
    59    71    72    1
    60    64    65    2
    61    20    21    1
    62    22    21    1
    63    75    72    1
    64    72    73    1
    65    73    74    2
    66    73    79   am
    67    12    11   ar
    68   144   142    1
    69   104   105    1
    70   104   103    1
    71    79    80    1
    72   105    99    1
    73    91    90    1
    74    11    13   ar
    75    11    10    1
    76     7     6    1
    77     7     8    1
    78     7    10    1
    79   143   142    1
    80   142   139    1
    81     2     3    1
    82     2     5    1
    83     2     1    1
    84     8     9    2
    85     3     4    2
    86   103   100    1
    87    85    83    1
    88    99   100    1
    89    80    83    1
    90    80    81    1
    91    86    87    1
    92    86    81   am
    93    84    83    1
    94    90    87    1
    95    88    87    1
    96    88    89    2
    97   139   138    1
    98   139   140    1
    99   100   101    1
   100    81    82    2
   101   140   141    2
   102   140   145   am
   103   101   102    2
   104   101   106   am
   105   136   135    2
   106   137   135   am
   107   145   146    1
   108   106   107    1
   109   135   134    1
   110   148   147    2
   111   147   146    1
   112   147   152   am
   113   153   152    1
   114   153   154    1
   115   166   164    1
   116   146   149    1
   117   107   108    1
   118   164   165    1
   119   164   163    2
   120   134   133    1
   121   115   117    1
   122   115   114    1
   123   130   129    1
   124   130   133    1
   125   130   131    1
   126   149   151    1
   127   149   150    1
   128   163   162    1
   129   154   156   am
   130   154   155    2
   131   108   110   am
   132   108   109    2
   133   110   111    1
   134   156   157    1
   135   131   132    2
   136   114   111    1
   137   114   116    1
   138   162   161    1
   139   161   160    1
   140   127   126    1
   141   111   112    1
   142   128   126    1
   143   157   160    1
   144   157   158    1
   145   126   125    2
   146   113   112    2
   147   112   118   am
   148   158   159    2
   149   125   124    1
   150   118   119    1
   151   124   123    1
   152   123   122    1
   153   119   122    1
   154   119   120    1
   155   120   121    2
