@<TRIPOS>MOLECULE
tmp/1dbwA00.pdb
 82 81 0 0 0
SMALL
GASTEIGER

@<TRIPOS>ATOM
      1  N         -0.5440    0.7970    0.7520 N.3     1  MET1       -0.1230
      2  CA         0.1200    0.9270    2.0880 C.3     1  MET1        0.1702
      3  C          1.2730    1.9060    1.9400 C.2     1  MET1        0.2592
      4  O          1.9020    1.9510    0.8990 O.2     1  MET1       -0.2718
      5  CB         0.6400   -0.4400    2.5230 C.3     1  MET1        0.0401
      6  CG        -0.4640   -1.5030    2.5610 C.3     1  MET1        0.0596
      7  SD         0.0850   -3.1380    2.9560 S.3     1  MET1       -0.1393
      8  CE        -0.0750   -3.0520    4.7540 C.3     1  MET1        0.0692
      9  N          1.5340    2.7140    2.9590 N.am    2  GLN2       -0.1966
     10  CA         2.6190    3.6890    2.8510 C.3     2  GLN2        0.1733
     11  C          3.9720    3.0690    3.1880 C.2     2  GLN2        0.2616
     12  O          4.1210    2.4530    4.2160 O.2     2  GLN2       -0.2715
     13  CB         2.3350    4.9210    3.7370 C.3     2  GLN2        0.0408
     14  CG         3.5200    5.8700    3.8450 C.3     2  GLN2        0.0908
     15  CD         3.1690    7.2340    4.4200 C.2     2  GLN2        0.2608
     16  OE1        3.5260    8.2490    3.8330 O.2     2  GLN2       -0.2717
     17  NE2        2.5010    7.2670    5.5830 N.am    2  GLN2       -0.0878
     18  N          4.9510    3.2300    2.3010 N.am    3  ASP3       -0.1957
     19  CA         6.3000    2.6860    2.5140 C.3     3  ASP3        0.1840
     20  C          7.1780    3.7090    3.2480 C.2     3  ASP3        0.2622
     21  O          8.0300    4.3630    2.6280 O.2     3  ASP3       -0.2715
     22  CB         6.9740    2.3570    1.1600 C.3     3  ASP3        0.1450
     23  CG         8.3520    1.7230    1.3200 C.2     3  ASP3        0.3671
     24  OD1        8.6700    1.2010    2.4130 O.co2   3  ASP3       -0.2456
     25  OD2        9.1640    1.7850    0.3740 O.co2   3  ASP3       -0.2456
     26  N          7.0400    3.8280    4.5560 N.am    4  TYR4       -0.1974
     27  CA         7.8810    4.8010    5.2540 C.3     4  TYR4        0.1639
     28  C          8.9390    4.1010    6.0840 C.2     4  TYR4        0.2290
     29  O          8.8650    2.8990    6.3090 O.2     4  TYR4       -0.2864
     30  CB         7.0200    5.7030    6.1380 C.3     4  TYR4        0.0560
     31  CG         6.2860    4.9420    7.2400 C.ar    4  TYR4       -0.0198
     32  CD1        5.0250    4.3790    7.0240 C.ar    4  TYR4       -0.0009
     33  CD2        6.8360    4.8540    8.5250 C.ar    4  TYR4       -0.0009
     34  CE1        4.3150    3.7650    8.0620 C.ar    4  TYR4        0.0417
     35  CE2        6.1460    4.2330    9.5670 C.ar    4  TYR4        0.0417
     36  CZ         4.8820    3.6990    9.3270 C.ar    4  TYR4        0.1957
     37  OH         4.1700    3.1670   10.3680 O.3     4  TYR4       -0.2866
     38  N         11.0920   -6.7950   13.6090 N.3    25  MET25      -0.1230
     39  CA        10.2940   -8.0030   13.6670 C.3    25  MET25       0.1702
     40  C          8.8070   -7.7660   13.4220 C.2    25  MET25       0.2592
     41  O          8.0940   -8.6860   13.0090 O.2    25  MET25      -0.2718
     42  CB        10.5390   -8.7530   14.9800 C.3    25  MET25       0.0401
     43  CG        11.9670   -9.2380   15.1180 C.3    25  MET25       0.0596
     44  SD        12.2690  -10.1550   16.6450 S.3    25  MET25      -0.1393
     45  CE        10.6670  -10.8080   16.9870 C.3    25  MET25       0.0692
     46  N          8.3450   -6.5350   13.6320 N.am   26  ASN26      -0.1960
     47  CA         6.9430   -6.1990   13.4080 C.3    26  ASN26       0.1819
     48  C          6.6920   -5.7330   11.9600 C.2    26  ASN26       0.2622
     49  O          5.6030   -5.3110   11.6200 O.2    26  ASN26      -0.2715
     50  CB         6.4600   -5.1790   14.4430 C.3    26  ASN26       0.1195
     51  CG         6.1230   -5.8440   15.7880 C.2    26  ASN26       0.2630
     52  OD1        4.9960   -6.2870   15.9910 O.2    26  ASN26      -0.2716
     53  ND2        7.1030   -5.9430   16.6890 N.am   26  ASN26      -0.0877
     54  N          7.7420   -5.7830   11.1510 N.am   27  GLY27      -0.1940
     55  CA         7.6200   -5.4180    9.7480 C.3    27  GLY27       0.2014
     56  C          7.9210   -3.9960    9.3270 C.2    27  GLY27       0.2639
     57  O          7.6690   -3.6140    8.1840 O.2    27  GLY27      -0.2714
     58  N          8.3620   -3.1650   10.2670 N.am   28  PHE28      -0.1959
     59  CA         8.6670   -1.7910    9.9010 C.3    28  PHE28       0.1771
     60  C          9.9800   -1.7130    9.1440 C.2    28  PHE28       0.2619
     61  O         10.8300   -2.5910    9.3250 O.2    28  PHE28      -0.2715
     62  CB         8.8510   -0.9720   11.1940 C.3    28  PHE28       0.0574
     63  CG         7.5660   -0.6540   11.8920 C.ar   28  PHE28      -0.0200
     64  CD1        7.0400   -1.5200   12.8640 C.ar   28  PHE28      -0.0042
     65  CD2        6.8770    0.5040   11.5770 C.ar   28  PHE28      -0.0042
     66  CE1        5.8410   -1.2140   13.4970 C.ar   28  PHE28      -0.0003
     67  CE2        5.6740    0.8230   12.2040 C.ar   28  PHE28      -0.0003
     68  CZ         5.1510   -0.0390   13.1680 C.ar   28  PHE28      -0.0000
     69  N         10.1060   -0.7180    8.2520 N.am   29  ALA29      -0.1977
     70  CA        11.3980   -0.4770    7.6050 C.3    29  ALA29       0.1597
     71  C         12.0730    0.3390    8.7070 C.2    29  ALA29       0.2287
     72  O         11.5020    1.3240    9.1720 O.2    29  ALA29      -0.2864
     73  CB        11.2300    0.3680    6.3470 C.3    29  ALA29       0.0319
     74  N          2.9500    4.7180   14.2170 N.3   116  GLU116     -0.1245
     75  CA         1.9070    4.7140   13.1800 C.3   116  GLU116      0.1567
     76  C          1.1770    6.0770   13.1490 C.2   116  GLU116      0.2260
     77  O          0.9350    6.6390   12.0740 O.2   116  GLU116     -0.2867
     78  CB         0.9370    3.5560   13.4300 C.3   116  GLU116      0.0388
     79  CG         1.6230    2.1970   13.3730 C.3   116  GLU116      0.1160
     80  CD         0.6790    1.0450   13.6940 C.2   116  GLU116      0.3649
     81  OE1        0.9980   -0.1050   13.3160 O.co2 116  GLU116     -0.2457
     82  OE2       -0.3690    1.2840   14.3330 O.co2 116  GLU116     -0.2457
@<TRIPOS>BOND
     1    25    23   ar
     2     1     2    1
     3     4     3    2
     4    22    23    1
     5    22    19    1
     6    23    24   ar
     7     3     2    1
     8     3     9   am
     9     2     5    1
    10    18    19    1
    11    18    11   am
    12    19    20    1
    13     5     6    1
    14     6     7    1
    15    21    20    2
    16    10     9    1
    17    10    11    1
    18    10    13    1
    19     7     8    1
    20    11    12    2
    21    20    26   am
    22    13    14    1
    23    16    15    2
    24    14    15    1
    25    15    17   am
    26    26    27    1
    27    27    28    1
    28    27    30    1
    29    28    29    2
    30    30    31    1
    31    73    70    1
    32    32    31   ar
    33    32    34   ar
    34    31    33   ar
    35    70    69    1
    36    70    71    1
    37    34    36   ar
    38    57    56    2
    39    69    60   am
    40    33    35   ar
    41    71    72    2
    42    60    61    2
    43    60    59    1
    44    36    35   ar
    45    36    37    1
    46    56    55    1
    47    56    58   am
    48    55    54    1
    49    59    58    1
    50    59    62    1
    51    54    48   am
    52    62    63    1
    53    65    63   ar
    54    65    67   ar
    55    49    48    2
    56    63    64   ar
    57    48    47    1
    58    77    76    2
    59    67    68   ar
    60    64    66   ar
    61    41    40    2
    62    76    75    1
    63    68    66   ar
    64    75    78    1
    65    75    74    1
    66    81    80   ar
    67    79    78    1
    68    79    80    1
    69    47    46    1
    70    47    50    1
    71    40    46   am
    72    40    39    1
    73    38    39    1
    74    39    42    1
    75    80    82   ar
    76    50    51    1
    77    42    43    1
    78    43    44    1
    79    51    52    2
    80    51    53   am
    81    44    45    1
