@<TRIPOS>MOLECULE
tmp/1dc4B00.pdb
 111 103 0 0 0
SMALL
GASTEIGER

@<TRIPOS>ATOM
      1  N         75.7400   67.1570    9.1150 N.3    12  ILE12      -0.1245
      2  CA        76.5340   66.5600   10.1810 C.3    12  ILE12       0.1561
      3  C         76.6210   67.4250   11.4380 C.2    12  ILE12       0.2260
      4  O         76.3450   66.9630   12.5400 O.2    12  ILE12      -0.2867
      5  CB        77.9580   66.2580    9.6930 C.3    12  ILE12       0.0252
      6  CG1       77.9210   65.2550    8.5490 C.3    12  ILE12       0.0019
      7  CG2       78.7670   65.6670   10.8040 C.3    12  ILE12       0.0019
      8  CD1       77.4760   63.8650    8.9810 C.3    12  ILE12       0.0001
      9  N         86.7610   61.7730    5.8430 N.3   118  PRO118     -0.2116
     10  CA        88.0650   61.1860    5.5220 C.3   118  PRO118      0.1372
     11  C         89.0820   62.2970    5.3030 C.2   118  PRO118      0.2244
     12  O         88.8170   63.2560    4.5750 O.2   118  PRO118     -0.2868
     13  CB        87.8100   60.3890    4.2480 C.3   118  PRO118      0.0268
     14  CG        86.3370   60.1440    4.2480 C.3   118  PRO118      0.0207
     15  CD        85.7030   61.3210    4.9240 C.3   118  PRO118      0.0892
     16  N         84.5680   58.2100    7.0810 N.3   144  SER144     -0.1202
     17  CA        83.2480   58.5380    6.5450 C.3   144  SER144      0.2020
     18  C         82.2200   57.5460    7.0520 C.2   144  SER144      0.2619
     19  O         82.5690   56.5290    7.6440 O.2   144  SER144     -0.2717
     20  CB        83.2750   58.5290    5.0120 C.3   144  SER144      0.2103
     21  OG        83.5930   57.2450    4.5060 O.3   144  SER144     -0.2182
     22  N         80.9510   57.8350    6.8100 N.am  145  CYS145     -0.1955
     23  CA        79.8810   56.9660    7.2720 C.3   145  CYS145      0.1843
     24  C         79.9570   55.5310    6.7490 C.2   145  CYS145      0.2626
     25  O         79.7860   54.5900    7.5190 O.2   145  CYS145     -0.2714
     26  CB        78.5490   57.6560    6.9170 C.3   145  CYS145      0.0997
     27  SG        78.4630   58.0440    5.1500 S.3   145  CYS145     -0.0797
     28  N         80.2060   55.3620    5.4510 N.am  146  THR146     -0.1950
     29  CA        80.2910   54.0290    4.8490 C.3   146  THR146      0.1897
     30  C         81.4590   53.2140    5.3850 C.2   146  THR146      0.2313
     31  O         81.4060   51.9850    5.4100 O.2   146  THR146     -0.2863
     32  CB        80.4110   54.1080    3.3150 C.3   146  THR146      0.1794
     33  OG1       79.2500   54.7600    2.7940 O.3   146  THR146     -0.2208
     34  CG2       80.5120   52.7180    2.7020 C.3   146  THR146      0.0378
     35  N         77.5920   50.0310   -1.8840 N.3   169  THR169     -0.1218
     36  CA        76.7330   50.6180   -0.8660 C.3   169  THR169      0.1862
     37  C         75.6250   51.3730   -1.5690 C.2   169  THR169      0.2287
     38  O         75.8900   52.2670   -2.3690 O.2   169  THR169     -0.2866
     39  CB        77.4790   51.6030    0.0690 C.3   169  THR169      0.1770
     40  OG1       76.5210   52.3800    0.7970 O.3   169  THR169     -0.2211
     41  CG2       78.3580   52.5370   -0.7160 C.3   169  THR169      0.0375
     42  N         73.5380   54.0040   -1.4040 N.3   171  HIS171     -0.1241
     43  CA        73.5390   55.2470   -0.6520 C.3   171  HIS171      0.1621
     44  C         72.3590   56.2060   -0.8280 C.2   171  HIS171      0.2264
     45  O         71.8940   56.4420   -1.9380 O.2   171  HIS171     -0.2867
     46  CB        74.8230   55.9930   -1.0060 C.3   171  HIS171      0.0745
     47  CG        75.4420   56.7170    0.1340 C.ar  171  HIS171      0.0817
     48  ND1       74.9640   57.9220    0.5950 N.ar  171  HIS171     -0.2268
     49  CD2       76.5070   56.4120    0.9170 C.ar  171  HIS171      0.1154
     50  CE1       75.7040   58.3330    1.6140 C.ar  171  HIS171      0.1986
     51  NE2       76.6460   57.4220    1.8200 N.ar  171  HIS171     -0.2212
     52  N         72.5660   62.8440   -0.7360 N.3   174  THR174     -0.1218
     53  CA        73.3340   63.7250    0.1450 C.3   174  THR174      0.1862
     54  C         73.2210   65.1610   -0.3430 C.2   174  THR174      0.2287
     55  O         72.8910   65.4030   -1.5010 O.2   174  THR174     -0.2866
     56  CB        74.8420   63.3480    0.1980 C.3   174  THR174      0.1770
     57  OG1       75.3530   63.1810   -1.1330 O.3   174  THR174     -0.2211
     58  CG2       75.0420   62.0600    1.0020 C.3   174  THR174      0.0375
     59  N         81.3460   56.7690   -6.3770 N.3   202  SER202     -0.1202
     60  CA        82.6180   56.2920   -5.8440 C.3   202  SER202      0.2020
     61  C         82.5060   56.4190   -4.3320 C.2   202  SER202      0.2619
     62  O         81.6560   57.1660   -3.8330 O.2   202  SER202     -0.2717
     63  CB        83.7740   57.1570   -6.3570 C.3   202  SER202      0.2103
     64  OG        83.8930   58.3560   -5.6060 O.3   202  SER202     -0.2182
     65  N         83.3310   55.6930   -3.5880 N.am  203  THR203     -0.1938
     66  CA        83.2400   55.8160   -2.1390 C.3   203  THR203      0.2028
     67  C         84.5810   55.7440   -1.4190 C.2   203  THR203      0.2642
     68  O         85.5210   55.0520   -1.8620 O.2   203  THR203     -0.2714
     69  CB        82.2910   54.7560   -1.5360 C.3   203  THR203      0.1808
     70  OG1       81.8700   55.1820   -0.2270 O.3   203  THR203     -0.2208
     71  CG2       82.9830   53.4030   -1.4570 C.3   203  THR203      0.0379
     72  N         84.6580   56.4890   -0.3100 N.am  204  GLY204     -0.1954
     73  CA        85.8690   56.5120    0.4930 C.3   204  GLY204      0.1869
     74  C         86.0640   55.1360    1.0950 C.2   204  GLY204      0.2309
     75  O         87.0390   54.4310    0.7810 O.2   204  GLY204     -0.2863
     76  N         79.4930   52.6770   -5.0150 N.3   223  ALA223     -0.1245
     77  CA        78.2380   53.1440   -4.4460 C.3   223  ALA223      0.1562
     78  C         77.1960   53.4070   -5.5340 C.2   223  ALA223      0.2260
     79  O         77.5310   53.6750   -6.6750 O.2   223  ALA223     -0.2867
     80  CB        78.4730   54.4090   -3.6500 C.3   223  ALA223      0.0290
     81  N         73.9800   55.8420   -5.6410 N.3   225  ARG225     -0.1245
     82  CA        73.1610   56.8290   -4.9350 C.3   225  ARG225      0.1563
     83  C         71.7120   56.7370   -5.3710 C.2   225  ARG225      0.2260
     84  O         71.3890   57.0400   -6.5090 O.2   225  ARG225     -0.2867
     85  CB        73.6640   58.2500   -5.2030 C.3   225  ARG225      0.0307
     86  CG        75.0650   58.5390   -4.6920 C.3   225  ARG225      0.0489
     87  CD        75.0830   58.7120   -3.1740 C.3   225  ARG225      0.2205
     88  NE        75.8120   59.9120   -2.7440 N.pl3 225  ARG225     -0.0865
     89  CZ        77.0110   59.8930   -2.1600 C.cat 225  ARG225      0.5346
     90  NH1       77.6350   58.7340   -1.9450 N.pl3 225  ARG225      0.1354
     91  NH2       77.5920   61.0330   -1.7950 N.pl3 225  ARG225      0.1354
     92  N         73.5390   57.0640    7.6570 N.3   306  ASN306     -0.1240
     93  CA        74.7180   57.8540    7.3210 C.3   306  ASN306      0.1653
     94  C         74.8180   59.1690    8.0710 C.2   306  ASN306      0.2266
     95  O         75.8710   59.7980    8.1030 O.2   306  ASN306     -0.2867
     96  CB        74.7860   58.1020    5.8110 C.3   306  ASN306      0.1155
     97  CG        73.4320   58.2640    5.1880 C.2   306  ASN306      0.2627
     98  OD1       72.6800   57.3130    5.0700 O.2   306  ASN306     -0.2716
     99  ND2       73.1130   59.4790    4.7810 N.am  306  ASN306     -0.0877
    100  N         77.1440   57.8780   12.2190 N.3   310  TYR310     -0.1241
    101  CA        78.4230   58.5570   12.0930 C.3   310  TYR310      0.1605
    102  C         78.5680   59.7190   13.0800 C.2   310  TYR310      0.2264
    103  O         79.6020   59.8630   13.7280 O.2   310  TYR310     -0.2867
    104  CB        78.5730   59.0700   10.6640 C.3   310  TYR310      0.0534
    105  CG        79.8870   59.7500   10.3990 C.ar  310  TYR310     -0.0201
    106  CD1       81.0260   59.0070   10.1170 C.ar  310  TYR310     -0.0009
    107  CD2       79.9990   61.1400   10.4320 C.ar  310  TYR310     -0.0009
    108  CE1       82.2520   59.6260    9.8790 C.ar  310  TYR310      0.0417
    109  CE2       81.2200   61.7740   10.1950 C.ar  310  TYR310      0.0417
    110  CZ        82.3430   61.0100    9.9190 C.ar  310  TYR310      0.1957
    111  OH        83.5550   61.6150    9.6930 O.3   310  TYR310     -0.2866
@<TRIPOS>BOND
     1    79    78    2
     2    84    83    2
     3    59    60    1
     4    63    60    1
     5    63    64    1
     6    60    61    1
     7    81    82    1
     8    78    77    1
     9    83    82    1
    10    85    82    1
    11    85    86    1
    12    76    77    1
    13    86    87    1
    14    77    80    1
    15    61    62    2
    16    61    65   am
    17    65    66    1
    18    87    88    1
    19    88    89    2
    20    38    37    2
    21    89    90    1
    22    89    91    1
    23    66    69    1
    24    66    67    1
    25    45    44    2
    26    35    36    1
    27    68    67    2
    28    37    36    1
    29    69    71    1
    30    69    70    1
    31    55    54    2
    32    67    72   am
    33    42    43    1
    34    57    56    1
    35    46    43    1
    36    46    47    1
    37    36    39    1
    38    44    43    1
    39    52    53    1
    40    41    39    1
    41    54    53    1
    42    72    73    1
    43    39    40    1
    44    47    48   ar
    45    47    49   ar
    46    53    56    1
    47    56    58    1
    48    73    74    1
    49    48    50   ar
    50    75    74    2
    51    49    51   ar
    52    50    51   ar
    53    34    32    1
    54    33    32    1
    55    32    29    1
    56    14    13    1
    57    14    15    1
    58    13    10    1
    59    21    20    1
    60    12    11    2
    61    99    97   am
    62    29    30    1
    63    29    28    1
    64    15     9    1
    65    20    17    1
    66    98    97    2
    67    27    26    1
    68    97    96    1
    69    11    10    1
    70    30    31    2
    71    28    24   am
    72    10     9    1
    73    96    93    1
    74    17    18    1
    75    17    16    1
    76    24    23    1
    77    24    25    2
    78    22    18   am
    79    22    23    1
    80    26    23    1
    81    18    19    2
    82    93    92    1
    83    93    94    1
    84    94    95    2
    85     6     8    1
    86     6     5    1
    87     1     2    1
    88   111   110    1
    89     5     2    1
    90     5     7    1
    91   108   110   ar
    92   108   106   ar
    93   110   109   ar
    94   106   105   ar
    95     2     3    1
    96   109   107   ar
    97   105   107   ar
    98   105   104    1
    99   104   101    1
   100     3     4    2
   101   101   100    1
   102   101   102    1
   103   102   103    2
