@<TRIPOS>MOLECULE
tmp/1dd6A00.pdb
 167 162 0 0 0
SMALL
GASTEIGER

@<TRIPOS>ATOM
      1  N          4.9460    1.2260   87.8880 N.3    18  SER18      -0.1217
      2  CA         3.8050    2.1130   87.6680 C.3    18  SER18       0.1889
      3  C          4.1420    2.7850   86.3250 C.2    18  SER18       0.2288
      4  O          5.2990    2.7310   85.8470 O.2    18  SER18      -0.2866
      5  CB         3.7120    3.2110   88.7110 C.3    18  SER18       0.2089
      6  OG         4.7260    4.1740   88.4720 O.3    18  SER18      -0.2183
      7  N          3.4450    6.4010   83.8180 N.3    20  GLU20      -0.1245
      8  CA         3.1170    7.8170   83.8620 C.3    20  GLU20       0.1567
      9  C          3.2570    8.4750   82.5090 C.2    20  GLU20       0.2260
     10  O          4.1410    8.1140   81.7450 O.2    20  GLU20      -0.2867
     11  CB         4.0610    8.5370   84.8300 C.3    20  GLU20       0.0388
     12  CG         3.6290    8.5170   86.2640 C.3    20  GLU20       0.1160
     13  CD         2.4260    9.3830   86.4770 C.2    20  GLU20       0.3649
     14  OE1        2.5180   10.6050   86.2040 O.co2  20  GLU20      -0.2457
     15  OE2        1.3930    8.8370   86.9080 O.co2  20  GLU20      -0.2457
     16  N          4.4880   11.4820   80.6980 N.3    22  VAL22      -0.1245
     17  CA         5.4110   12.5590   80.9870 C.3    22  VAL22       0.1561
     18  C          5.4980   13.5000   79.7870 C.2    22  VAL22       0.2260
     19  O          5.9180   13.1010   78.7100 O.2    22  VAL22      -0.2867
     20  CB         6.7960   12.0020   81.3120 C.3    22  VAL22       0.0252
     21  CG1        7.7680   13.1470   81.5670 C.3    22  VAL22       0.0019
     22  CG2        6.6990   11.0790   82.5130 C.3    22  VAL22       0.0019
     23  N          7.6150   13.2500   76.6610 N.3    25  TRP25      -0.1241
     24  CA         8.2050   11.9120   76.5710 C.3    25  TRP25       0.1605
     25  C          7.2540   10.7510   76.3100 C.2    25  TRP25       0.2264
     26  O          7.7100    9.6640   75.9720 O.2    25  TRP25      -0.2867
     27  CB         9.0180   11.5920   77.8320 C.3    25  TRP25       0.0550
     28  CG        10.0660   12.5970   78.1670 C.ar   25  TRP25       0.0003
     29  CD1        9.9500   13.6600   79.0440 C.ar   25  TRP25       0.0946
     30  CD2       11.3850   12.6790   77.6150 C.ar   25  TRP25       0.0152
     31  NE1       11.1150   14.3830   79.0600 N.ar   25  TRP25      -0.2442
     32  CE2       12.0120   13.8100   78.1970 C.ar   25  TRP25       0.0810
     33  CE3       12.0970   11.9070   76.6810 C.ar   25  TRP25       0.0012
     34  CZ2       13.3220   14.1900   77.8820 C.ar   25  TRP25       0.0191
     35  CZ3       13.4160   12.2870   76.3580 C.ar   25  TRP25       0.0001
     36  CH2       14.0090   13.4200   76.9640 C.ar   25  TRP25       0.0015
     37  N          5.8930    6.4800   80.2460 N.3    28  VAL28      -0.1231
     38  CA         7.1860    6.0840   80.8050 C.3    28  VAL28       0.1678
     39  C          6.9640    5.2040   82.0260 C.2    28  VAL28       0.2434
     40  O          6.2110    5.5570   82.9230 O.2    28  VAL28      -0.2733
     41  CB         8.0080    7.3100   81.2650 C.3    28  VAL28       0.0265
     42  CG1        9.3060    6.8150   81.9000 C.3    28  VAL28       0.0020
     43  CG2        8.3600    8.2380   80.0600 C.3    28  VAL28       0.0020
     44  N          7.6110    4.0400   82.0670 N.am   29  PRO29      -0.2718
     45  CA         7.4160    3.1780   83.2400 C.3    29  PRO29       0.1535
     46  C          8.3260    3.6290   84.3890 C.2    29  PRO29       0.2598
     47  O          9.2900    4.3790   84.1520 O.2    29  PRO29      -0.2715
     48  CB         7.8270    1.8120   82.7080 C.3    29  PRO29       0.0310
     49  CG         9.0540    2.1850   81.8730 C.3    29  PRO29       0.0237
     50  CD         8.4930    3.3950   81.0760 C.3    29  PRO29       0.0939
     51  N          7.9920    3.2240   85.6180 N.am   30  LYS30      -0.1978
     52  CA         8.8410    3.4710   86.7860 C.3    30  LYS30       0.1596
     53  C          8.9070    2.1300   87.5360 C.2    30  LYS30       0.2287
     54  O          7.9160    1.6470   88.0690 O.2    30  LYS30      -0.2864
     55  CB         8.3090    4.5410   87.7410 C.3    30  LYS30       0.0298
     56  CG         9.1980    4.7230   88.9970 C.3    30  LYS30       0.0038
     57  CD        10.6850    5.0370   88.6190 C.3    30  LYS30       0.0206
     58  CE        11.5710    5.2510   89.9210 C.3    30  LYS30       0.1093
     59  NZ        11.6630    4.0020   90.7830 N.3    30  LYS30      -0.1314
     60  N          5.1680    6.3620   93.1480 N.3    48  PHE48      -0.1241
     61  CA         4.9890    7.7900   93.0010 C.3    48  PHE48       0.1605
     62  C          3.9230    8.4240   93.8860 C.2    48  PHE48       0.2264
     63  O          4.0780    9.5620   94.3250 O.2    48  PHE48      -0.2867
     64  CB         4.6890    8.0110   91.5050 C.3    48  PHE48       0.0534
     65  CG         4.6260    9.4340   91.0760 C.ar   48  PHE48      -0.0203
     66  CD1        5.7880   10.1520   90.8280 C.ar   48  PHE48      -0.0042
     67  CD2        3.3860   10.0470   90.8530 C.ar   48  PHE48      -0.0042
     68  CE1        5.7340   11.4660   90.3540 C.ar   48  PHE48      -0.0003
     69  CE2        3.3120   11.3650   90.3810 C.ar   48  PHE48      -0.0003
     70  CZ         4.4950   12.0780   90.1290 C.ar   48  PHE48      -0.0000
     71  N         16.8940    8.3960   95.0600 N.3    74  HIS74      -0.1241
     72  CA        17.2020    9.7980   94.8310 C.3    74  HIS74       0.1621
     73  C         15.9730   10.6110   95.2130 C.2    74  HIS74       0.2264
     74  O         14.8980   10.0170   95.4970 O.2    74  HIS74      -0.2867
     75  CB        17.6760   10.0690   93.3800 C.3    74  HIS74       0.0745
     76  CG        16.5980   10.0650   92.3760 C.ar   74  HIS74       0.0817
     77  ND1       15.6490    9.0740   92.3110 N.ar   74  HIS74      -0.2268
     78  CD2       16.3890   10.8660   91.3070 C.ar   74  HIS74       0.1154
     79  CE1       14.9000    9.2610   91.2420 C.ar   74  HIS74       0.1986
     80  NE2       15.3330   10.3380   90.6160 N.ar   74  HIS74      -0.2212
     81  N         13.8090   12.7860   93.5560 N.3    76  HIS76      -0.1226
     82  CA        12.5940   13.0340   92.7890 C.3    76  HIS76       0.1752
     83  C         11.4380   12.1520   93.3060 C.2    76  HIS76       0.2597
     84  O         11.6570   11.0550   93.8410 O.2    76  HIS76      -0.2718
     85  CB        12.8400   12.8060   91.3090 C.3    76  HIS76       0.0759
     86  CG        13.8030   13.7990   90.7170 C.ar   76  HIS76       0.0818
     87  ND1       14.4840   13.5760   89.5420 N.ar   76  HIS76      -0.2268
     88  CD2       14.1260   15.0560   91.0970 C.ar   76  HIS76       0.1154
     89  CE1       15.1820   14.6520   89.2160 C.ar   76  HIS76       0.1986
     90  NE2       14.9850   15.5660   90.1430 N.ar   76  HIS76      -0.2212
     91  N         10.2180   12.6350   93.1070 N.am   77  SER77      -0.1938
     92  CA         9.0140   11.9640   93.5920 C.3    77  SER77       0.2055
     93  C          8.8400   10.5410   93.1140 C.2    77  SER77       0.2643
     94  O          8.2250    9.7430   93.8050 O.2    77  SER77      -0.2714
     95  CB         7.7680   12.8120   93.2070 C.3    77  SER77       0.2130
     96  OG         7.7820   13.0760   91.8220 O.3    77  SER77      -0.2179
     97  N          9.3330   10.2000   91.9220 N.am   78  ASP78      -0.1971
     98  CA         9.1460    8.8250   91.5290 C.3    78  ASP78       0.1709
     99  C          9.9120    7.8220   92.3870 C.2    78  ASP78       0.2293
    100  O          9.6610    6.6180   92.2650 O.2    78  ASP78      -0.2864
    101  CB         9.4490    8.6280   90.0700 C.3    78  ASP78       0.1436
    102  CG        10.8930    8.9710   89.7250 C.2    78  ASP78       0.3671
    103  OD1       11.5930    9.7280   90.4220 O.co2  78  ASP78      -0.2456
    104  OD2       11.2820    8.4740   88.7100 O.co2  78  ASP78      -0.2456
    105  N         22.4030   11.7010   87.0510 N.3   136  HIS136     -0.1241
    106  CA        21.0060   12.0840   86.7820 C.3   136  HIS136      0.1621
    107  C         20.6240   13.2070   87.7650 C.2   136  HIS136      0.2264
    108  O         19.9940   14.2130   87.3910 O.2   136  HIS136     -0.2867
    109  CB        20.1310   10.8570   87.0000 C.3   136  HIS136      0.0745
    110  CG        18.6870   11.1750   87.0550 C.ar  136  HIS136      0.0817
    111  ND1       18.0110   11.6830   85.9710 N.ar  136  HIS136     -0.2268
    112  CD2       17.8070   11.1470   88.0800 C.ar  136  HIS136      0.1154
    113  CE1       16.7730   11.9620   86.3270 C.ar  136  HIS136      0.1986
    114  NE2       16.6270   11.6440   87.5990 N.ar  136  HIS136     -0.2212
    115  N         17.3330    5.9250   88.4630 N.3   155  CYS155     -0.1235
    116  CA        17.2640    6.8480   87.3350 C.3   155  CYS155      0.1677
    117  C         18.6450    7.2330   86.8150 C.2   155  CYS155      0.2270
    118  O         18.7590    8.0450   85.9050 O.2   155  CYS155     -0.2867
    119  CB        16.4310    8.0650   87.7520 C.3   155  CYS155      0.0956
    120  SG        14.8350    7.5040   88.5600 S.3   155  CYS155     -0.0801
    121  N         20.7800    4.9050   82.2880 N.3   158  LYS158     -0.1245
    122  CA        20.1120    5.4800   81.1100 C.3   158  LYS158      0.1561
    123  C         20.8980    5.0020   79.8740 C.2   158  LYS158      0.2260
    124  O         21.7120    5.7350   79.3270 O.2   158  LYS158     -0.2867
    125  CB        20.1480    7.0160   81.2060 C.3   158  LYS158      0.0271
    126  CG        19.2770    7.6820   82.3070 C.3   158  LYS158      0.0035
    127  CD        17.8090    7.6880   81.8600 C.3   158  LYS158      0.0206
    128  CE        16.8510    8.0480   83.0050 C.3   158  LYS158      0.1093
    129  NZ        17.1910    9.3300   83.6300 N.3   158  LYS158     -0.1314
    130  N         19.8000    4.2440   76.6970 N.3   160  TYR160     -0.1227
    131  CA        19.3960    4.7690   75.3960 C.3   160  TYR160      0.1736
    132  C         19.2600    6.2940   75.2950 C.2   160  TYR160      0.2596
    133  O         19.0460    6.8360   74.2130 O.2   160  TYR160     -0.2718
    134  CB        18.0890    4.0860   74.9970 C.3   160  TYR160      0.0548
    135  CG        18.1930    2.5930   75.1140 C.ar  160  TYR160     -0.0200
    136  CD1       19.0980    1.8710   74.3330 C.ar  160  TYR160     -0.0009
    137  CD2       17.4610    1.9040   76.0600 C.ar  160  TYR160     -0.0009
    138  CE1       19.2630    0.4980   74.5110 C.ar  160  TYR160      0.0417
    139  CE2       17.6240    0.5340   76.2440 C.ar  160  TYR160      0.0417
    140  CZ        18.5270   -0.1590   75.4690 C.ar  160  TYR160      0.1957
    141  OH        18.7160   -1.5050   75.6920 O.3   160  TYR160     -0.2866
    142  N         19.3800    6.9740   76.4270 N.am  161  GLY161     -0.1957
    143  CA        19.2960    8.4240   76.4560 C.3   161  GLY161      0.1869
    144  C         19.3150    8.8470   77.9070 C.2   161  GLY161      0.2309
    145  O         18.9130    8.0520   78.7460 O.2   161  GLY161     -0.2863
    146  N         17.5380   11.3070   79.4050 N.3   163  GLY163     -0.1210
    147  CA        16.2560   11.7520   79.9350 C.3   163  GLY163      0.1956
    148  C         16.2240   13.2180   80.2970 C.2   163  GLY163      0.2611
    149  O         16.8170   14.0520   79.6130 O.2   163  GLY163     -0.2717
    150  N         15.5470   13.5430   81.3860 N.am  164  ASN164     -0.1974
    151  CA        15.4390   14.9270   81.8130 C.3   164  ASN164      0.1688
    152  C         16.7030   15.3820   82.5470 C.2   164  ASN164      0.2292
    153  O         16.9920   14.9070   83.6460 O.2   164  ASN164     -0.2864
    154  CB        14.2240   15.0700   82.7200 C.3   164  ASN164      0.1181
    155  CG        13.8880   16.4960   83.0050 C.2   164  ASN164      0.2629
    156  OD1       14.7420   17.2770   83.4500 O.2   164  ASN164     -0.2716
    157  ND2       12.6270   16.8620   82.7580 N.am  164  ASN164     -0.0877
    158  N         13.6060    3.5480   84.4470 N.3   194  HIS194     -0.1241
    159  CA        12.7810    3.8600   83.2850 C.3   194  HIS194      0.1621
    160  C         12.9090    3.0920   82.0120 C.2   194  HIS194      0.2264
    161  O         12.4220    3.5420   80.9780 O.2   194  HIS194     -0.2867
    162  CB        12.9330    5.3250   82.9560 C.3   194  HIS194      0.0745
    163  CG        12.5900    6.2170   84.0890 C.ar  194  HIS194      0.0817
    164  ND1       11.3420    6.2200   84.6720 N.ar  194  HIS194     -0.2268
    165  CD2       13.3210    7.1400   84.7510 C.ar  194  HIS194      0.1154
    166  CE1       11.3140    7.1070   85.6450 C.ar  194  HIS194      0.1986
    167  NE2       12.5040    7.6780   85.7120 N.ar  194  HIS194     -0.2212
@<TRIPOS>BOND
     1   133   132    2
     2   136   138   ar
     3   136   135   ar
     4   138   140   ar
     5   134   135    1
     6   134   131    1
     7   135   137   ar
     8   132   131    1
     9   132   142   am
    10   131   130    1
    11   140   141    1
    12   140   139   ar
    13    26    25    2
    14   137   139   ar
    15    25    24    1
    16    35    33   ar
    17    35    36   ar
    18   142   143    1
    19   143   144    1
    20    24    23    1
    21    24    27    1
    22    33    30   ar
    23    36    34   ar
    24    30    28   ar
    25    30    32   ar
    26    27    28    1
    27    34    32   ar
    28   144   145    2
    29    28    29   ar
    30    32    31   ar
    31    19    18    2
    32    29    31   ar
    33   124   123    2
    34   146   147    1
    35   149   148    2
    36    18    17    1
    37   123   122    1
    38   147   148    1
    39    43    41    1
    40    37    38    1
    41   148   150   am
    42    16    17    1
    43    38    41    1
    44    38    39    1
    45   161   160    2
    46    17    20    1
    47    50    49    1
    48    50    44    1
    49   122   125    1
    50   122   121    1
    51   125   126    1
    52    41    42    1
    53    20    21    1
    54    20    22    1
    55   150   151    1
    56    10     9    2
    57   151   152    1
    58   151   154    1
    59   127   126    1
    60   127   128    1
    61    49    48    1
    62   160   159    1
    63    39    44   am
    64    39    40    2
    65    44    45    1
    66     9     8    1
    67   152   153    2
    68    48    45    1
    69   154   155    1
    70   157   155   am
    71   162   159    1
    72   162   163    1
    73   128   129    1
    74   155   156    2
    75    45    46    1
    76   159   158    1
    77     7     8    1
    78     8    11    1
    79   163   164   ar
    80   163   165   ar
    81    47    46    2
    82    46    51   am
    83   164   166   ar
    84   165   167   ar
    85    11    12    1
    86    51    52    1
    87   166   167   ar
    88     4     3    2
    89   118   117    2
    90   111   113   ar
    91   111   110   ar
    92    14    13   ar
    93    12    13    1
    94     3     2    1
    95   113   114   ar
    96    13    15   ar
    97   106   109    1
    98   106   105    1
    99   106   107    1
   100    52    53    1
   101    52    55    1
   102   117   116    1
   103   109   110    1
   104   110   112   ar
   105   116   119    1
   106   116   115    1
   107   108   107    2
   108    53    54    2
   109   114   112   ar
   110     2     1    1
   111     2     5    1
   112    55    56    1
   113   119   120    1
   114     6     5    1
   115    57    56    1
   116    57    58    1
   117   104   102   ar
   118    89    87   ar
   119    89    90   ar
   120    87    86   ar
   121   102   101    1
   122   102   103   ar
   123    58    59    1
   124   101    98    1
   125    70    68   ar
   126    70    69   ar
   127    90    88   ar
   128    68    66   ar
   129    69    67   ar
   130    80    79   ar
   131    80    78   ar
   132    86    88   ar
   133    86    85    1
   134    66    65   ar
   135    67    65   ar
   136    65    64    1
   137    79    77   ar
   138    78    76   ar
   139    85    82    1
   140    64    61    1
   141    98    97    1
   142    98    99    1
   143    96    95    1
   144    97    93   am
   145   100    99    2
   146    77    76   ar
   147    76    75    1
   148    82    83    1
   149    82    81    1
   150    61    60    1
   151    61    62    1
   152    91    83   am
   153    91    92    1
   154    93    92    1
   155    93    94    2
   156    95    92    1
   157    83    84    2
   158    75    72    1
   159    62    63    2
   160    72    71    1
   161    72    73    1
   162    73    74    2
