@<TRIPOS>MOLECULE
tmp/1dd6B00.pdb
 162 159 0 0 0
SMALL
GASTEIGER

@<TRIPOS>ATOM
      1  N         33.7720   10.2440  136.3030 N.3    18  SER18      -0.1202
      2  CA        32.9350    9.0720  136.4810 C.3    18  SER18       0.2020
      3  C         31.8520    9.2710  135.4630 C.2    18  SER18       0.2619
      4  O         31.6890   10.3910  134.9570 O.2    18  SER18      -0.2717
      5  CB        32.3890    9.0210  137.8990 C.3    18  SER18       0.2103
      6  OG        31.7580   10.2380  138.2390 O.3    18  SER18      -0.2182
      7  N         31.1030    8.2190  135.1420 N.am   19  PHE19      -0.1961
      8  CA        30.0990    8.3590  134.1000 C.3    19  PHE19       0.1771
      9  C         28.6930    7.9110  134.4290 C.2    19  PHE19       0.2619
     10  O         28.4760    7.0820  135.3030 O.2    19  PHE19      -0.2715
     11  CB        30.5590    7.6140  132.8460 C.3    19  PHE19       0.0574
     12  CG        31.9380    7.9920  132.3770 C.ar   19  PHE19      -0.0200
     13  CD1       33.0730    7.5400  133.0500 C.ar   19  PHE19      -0.0042
     14  CD2       32.0980    8.8330  131.2890 C.ar   19  PHE19      -0.0042
     15  CE1       34.3590    7.9350  132.6450 C.ar   19  PHE19      -0.0003
     16  CE2       33.3720    9.2320  130.8740 C.ar   19  PHE19      -0.0003
     17  CZ        34.5080    8.7870  131.5550 C.ar   19  PHE19      -0.0000
     18  N         27.7450    8.4680  133.6880 N.am   20  GLU20      -0.1977
     19  CA        26.3370    8.1450  133.8370 C.3    20  GLU20       0.1602
     20  C         25.5840    8.2230  132.5170 C.2    20  GLU20       0.2287
     21  O         25.9430    8.9910  131.6180 O.2    20  GLU20      -0.2864
     22  CB        25.6760    9.0860  134.8410 C.3    20  GLU20       0.0415
     23  CG        25.8500    8.6640  136.2880 C.3    20  GLU20       0.1163
     24  CD        25.0910    7.3930  136.6070 C.2    20  GLU20       0.3649
     25  OE1       23.8630    7.3880  136.3680 O.co2  20  GLU20      -0.2457
     26  OE2       25.7100    6.4110  137.0910 O.co2  20  GLU20      -0.2457
     27  N         22.5290    9.5040  130.8720 N.3    22  VAL22      -0.1245
     28  CA        21.4160   10.4240  131.0690 C.3    22  VAL22       0.1561
     29  C         20.4520   10.3650  129.8970 C.2    22  VAL22       0.2260
     30  O         20.8390   10.4590  128.7290 O.2    22  VAL22      -0.2867
     31  CB        21.8740   11.8920  131.2820 C.3    22  VAL22       0.0252
     32  CG1       22.8140   11.9730  132.4600 C.3    22  VAL22       0.0019
     33  CG2       22.5190   12.4300  130.0380 C.3    22  VAL22       0.0019
     34  N         21.0450   11.9390  126.2660 N.3    25  TRP25      -0.1241
     35  CA        22.3660   12.4190  125.8940 C.3    25  TRP25       0.1605
     36  C         23.4250   11.3380  125.9280 C.2    25  TRP25       0.2264
     37  O         24.6200   11.6270  125.8340 O.2    25  TRP25      -0.2867
     38  CB        22.8070   13.5610  126.8110 C.3    25  TRP25       0.0550
     39  CG        21.8790   14.7320  126.8380 C.ar   25  TRP25       0.0003
     40  CD1       20.7050   14.8370  127.5270 C.ar   25  TRP25       0.0946
     41  CD2       22.0440   15.9680  126.1310 C.ar   25  TRP25       0.0152
     42  NE1       20.1300   16.0610  127.2960 N.ar   25  TRP25      -0.2442
     43  CE2       20.9290   16.7760  126.4410 C.ar   25  TRP25       0.0810
     44  CE3       23.0260   16.4700  125.2650 C.ar   25  TRP25       0.0012
     45  CZ2       20.7670   18.0650  125.9160 C.ar   25  TRP25       0.0191
     46  CZ3       22.8670   17.7510  124.7430 C.ar   25  TRP25       0.0001
     47  CH2       21.7450   18.5330  125.0720 C.ar   25  TRP25       0.0015
     48  N         27.2820   10.6520  129.7440 N.3    28  VAL28      -0.1231
     49  CA        27.8120   11.9620  130.1090 C.3    28  VAL28       0.1678
     50  C         28.8410   11.8420  131.2330 C.2    28  VAL28       0.2434
     51  O         28.6250   11.0960  132.1930 O.2    28  VAL28      -0.2733
     52  CB        26.6540   12.8550  130.5720 C.3    28  VAL28       0.0265
     53  CG1       27.1550   14.1980  131.0600 C.3    28  VAL28       0.0020
     54  CG2       25.6920   13.0190  129.4270 C.3    28  VAL28       0.0020
     55  N         30.0080   12.5190  131.0950 N.am   29  PRO29      -0.2718
     56  CA        31.0140   12.4350  132.1560 C.3    29  PRO29       0.1535
     57  C         30.7460   13.5010  133.2220 C.2    29  PRO29       0.2598
     58  O         30.0250   14.4850  132.9660 O.2    29  PRO29      -0.2715
     59  CB        32.3100   12.7160  131.4050 C.3    29  PRO29       0.0310
     60  CG        31.8410   13.8510  130.4580 C.3    29  PRO29       0.0237
     61  CD        30.5260   13.2890  129.9390 C.3    29  PRO29       0.0939
     62  N         31.3210   13.2710  134.4030 N.am   30  LYS30      -0.1978
     63  CA        31.2720   14.1860  135.5430 C.3    30  LYS30       0.1596
     64  C         32.7080   14.2810  136.0570 C.2    30  LYS30       0.2287
     65  O         33.2920   13.2960  136.5130 O.2    30  LYS30      -0.2864
     66  CB        30.3610   13.6620  136.6600 C.3    30  LYS30       0.0298
     67  CG        30.4030   14.4240  137.9860 C.3    30  LYS30       0.0038
     68  CD        29.9620   15.8880  137.8970 C.3    30  LYS30       0.0206
     69  CE        30.1590   16.5900  139.2320 C.3    30  LYS30       0.1093
     70  NZ        31.5900   16.5110  139.6910 N.3    30  LYS30      -0.1314
     71  N         29.9500    9.7410  141.1370 N.3    48  PHE48      -0.1241
     72  CA        28.5120    9.5560  141.2840 C.3    48  PHE48       0.1605
     73  C         28.0720    8.4550  142.2650 C.2    48  PHE48       0.2264
     74  O         27.1040    8.6320  143.0060 O.2    48  PHE48      -0.2867
     75  CB        27.8910    9.2840  139.9030 C.3    48  PHE48       0.0534
     76  CG        26.3990    9.3430  139.8980 C.ar   48  PHE48      -0.0203
     77  CD1       25.7400   10.5570  140.0380 C.ar   48  PHE48      -0.0042
     78  CD2       25.6430    8.1830  139.8050 C.ar   48  PHE48      -0.0042
     79  CE1       24.3590   10.6220  140.0860 C.ar   48  PHE48      -0.0003
     80  CE2       24.2450    8.2360  139.8540 C.ar   48  PHE48      -0.0003
     81  CZ        23.6060    9.4620  139.9950 C.ar   48  PHE48      -0.0000
     82  N         27.8650   21.0570  145.2430 N.3    74  HIS74      -0.1241
     83  CA        26.4070   21.3200  145.2970 C.3    74  HIS74       0.1621
     84  C         25.6910   20.0340  145.6540 C.2    74  HIS74       0.2264
     85  O         26.3320   18.9870  145.7130 O.2    74  HIS74      -0.2867
     86  CB        25.8370   21.9500  144.0220 C.3    74  HIS74       0.0745
     87  CG        25.7830   21.0180  142.8680 C.ar   74  HIS74       0.0817
     88  ND1       26.8070   20.1480  142.5820 N.ar   74  HIS74      -0.2268
     89  CD2       24.8740   20.8760  141.8780 C.ar   74  HIS74       0.1154
     90  CE1       26.5330   19.5080  141.4600 C.ar   74  HIS74       0.1986
     91  NE2       25.3690   19.9310  141.0150 N.ar   74  HIS74      -0.2212
     92  N         23.2740   18.0080  144.1400 N.3    76  HIS76      -0.1226
     93  CA        22.9510   16.9280  143.1920 C.3    76  HIS76       0.1752
     94  C         23.8610   15.7270  143.3830 C.2    76  HIS76       0.2597
     95  O         25.0370   15.8820  143.7650 O.2    76  HIS76      -0.2718
     96  CB        22.9560   17.4540  141.7310 C.3    76  HIS76       0.0759
     97  CG        21.7770   18.3180  141.4230 C.ar   76  HIS76       0.0818
     98  ND1       21.7420   19.2030  140.3700 N.ar   76  HIS76      -0.2268
     99  CD2       20.5830   18.4410  142.0540 C.ar   76  HIS76       0.1154
    100  CE1       20.5870   19.8410  140.3660 C.ar   76  HIS76       0.1986
    101  NE2       19.8630   19.3960  141.3780 N.ar   76  HIS76      -0.2212
    102  N         23.3010   14.5350  143.1520 N.am   77  SER77      -0.1938
    103  CA        24.0150   13.2520  143.3350 C.3    77  SER77       0.2055
    104  C         25.3820   13.1330  142.6910 C.2    77  SER77       0.2643
    105  O         26.2230   12.3620  143.1600 O.2    77  SER77      -0.2714
    106  CB        23.1670   12.0860  142.8100 C.3    77  SER77       0.2130
    107  OG        21.9240   12.0000  143.4800 O.3    77  SER77      -0.2179
    108  N         25.6070   13.8560  141.5930 N.am   78  ASP78      -0.1971
    109  CA        26.8980   13.7530  140.9350 C.3    78  ASP78       0.1709
    110  C         28.0320   14.4710  141.6550 C.2    78  ASP78       0.2293
    111  O         29.2060   14.3730  141.2670 O.2    78  ASP78      -0.2864
    112  CB        26.7830   14.1550  139.4570 C.3    78  ASP78       0.1436
    113  CG        26.3210   15.5770  139.2450 C.2    78  ASP78       0.3671
    114  OD1       25.6350   16.2050  140.0830 O.co2  78  ASP78      -0.2456
    115  OD2       26.6360   16.0620  138.1590 O.co2  78  ASP78      -0.2456
    116  N         22.9980   27.3590  138.6390 N.3   136  HIS136     -0.1241
    117  CA        22.5930   26.0030  138.2470 C.3   136  HIS136      0.1621
    118  C         21.7080   25.4280  139.3890 C.2   136  HIS136      0.2264
    119  O         20.7200   24.6980  139.1560 O.2   136  HIS136     -0.2867
    120  CB        23.8590   25.1680  138.0630 C.3   136  HIS136      0.0745
    121  CG        23.6080   23.7080  138.0640 C.ar  136  HIS136      0.0817
    122  ND1       22.8350   23.0860  137.1090 N.ar  136  HIS136     -0.2268
    123  CD2       23.9750   22.7460  138.9400 C.ar  136  HIS136      0.1154
    124  CE1       22.7360   21.8010  137.3930 C.ar  136  HIS136      0.1986
    125  NE2       23.4180   21.5710  138.5010 N.ar  136  HIS136     -0.2212
    126  N         29.1510   22.2570  138.2890 N.3   155  CYS155     -0.1235
    127  CA        28.0610   22.3060  137.3340 C.3   155  CYS155      0.1677
    128  C         27.6100   23.7310  137.0870 C.2   155  CYS155      0.2270
    129  O         26.6850   23.9690  136.3100 O.2   155  CYS155     -0.2867
    130  CB        26.9150   21.4370  137.8420 C.3   155  CYS155      0.0956
    131  SG        27.5980   19.8400  138.3530 S.3   155  CYS155     -0.0801
    132  N         29.0230   26.4280  132.5480 N.3   158  LYS158     -0.1245
    133  CA        28.2930   25.8550  131.4290 C.3   158  LYS158      0.1561
    134  C         28.5980   26.7230  130.1970 C.2   158  LYS158      0.2260
    135  O         27.8460   27.6410  129.8570 O.2   158  LYS158     -0.2867
    136  CB        26.8000   25.8760  131.7710 C.3   158  LYS158      0.0271
    137  CG        26.4040   24.9250  132.9180 C.3   158  LYS158      0.0035
    138  CD        26.5640   23.4640  132.4760 C.3   158  LYS158      0.0206
    139  CE        26.1040   22.4730  133.5530 C.3   158  LYS158      0.1093
    140  NZ        24.6640   22.6190  133.8630 N.3   158  LYS158     -0.1314
    141  N         22.0360   23.5480  130.4240 N.3   163  GLY163     -0.1210
    142  CA        21.7250   22.2030  130.8730 C.3   163  GLY163      0.1956
    143  C         20.3750   22.0930  131.5620 C.2   163  GLY163      0.2611
    144  O         19.4310   22.8180  131.2330 O.2   163  GLY163     -0.2717
    145  N         20.2760   21.1850  132.5250 N.am  164  ASN164     -0.1974
    146  CA        19.0250   20.9800  133.2430 C.3   164  ASN164      0.1688
    147  C         18.7450   22.1820  134.1550 C.2   164  ASN164      0.2292
    148  O         19.5720   22.5440  134.9930 O.2   164  ASN164     -0.2864
    149  CB        19.1040   19.6560  134.0190 C.3   164  ASN164      0.1181
    150  CG        17.8570   19.3730  134.8540 C.2   164  ASN164      0.2629
    151  OD1       16.7840   19.9570  134.6490 O.2   164  ASN164     -0.2716
    152  ND2       17.9930   18.4470  135.7910 N.am  164  ASN164     -0.0877
    153  N         30.7510   18.9120  133.4610 N.3   194  HIS194     -0.1241
    154  CA        30.3260   18.1110  132.3240 C.3   194  HIS194      0.1621
    155  C         30.8990   18.3740  130.9340 C.2   194  HIS194      0.2264
    156  O         30.4030   17.8430  129.9360 O.2   194  HIS194     -0.2867
    157  CB        28.8110   18.1780  132.2790 C.3   194  HIS194      0.0745
    158  CG        28.1730   17.6290  133.5180 C.ar  194  HIS194      0.0817
    159  ND1       28.4370   16.3570  133.9790 N.ar  194  HIS194     -0.2268
    160  CD2       27.2820   18.1710  134.3850 C.ar  194  HIS194      0.1154
    161  CE1       27.7340   16.1380  135.0770 C.ar  194  HIS194      0.1986
    162  NE2       27.0250   17.2200  135.3400 N.ar  194  HIS194     -0.2212
@<TRIPOS>BOND
     1    46    47   ar
     2    46    44   ar
     3    47    45   ar
     4    44    41   ar
     5    37    36    2
     6    35    36    1
     7    35    34    1
     8    35    38    1
     9    45    43   ar
    10    41    43   ar
    11    41    39   ar
    12    43    42   ar
    13    38    39    1
    14    39    40   ar
    15    42    40   ar
    16    30    29    2
    17    54    52    1
    18    48    49    1
    19   135   134    2
    20    29    28    1
    21   156   155    2
    22    61    60    1
    23    61    55    1
    24    33    31    1
    25    49    52    1
    26    49    50    1
    27   134   133    1
    28   141   142    1
    29    60    59    1
    30    52    53    1
    31    27    28    1
    32   142   143    1
    33    16    14   ar
    34    16    17   ar
    35   155   154    1
    36    28    31    1
    37    55    50   am
    38    55    56    1
    39    50    51    2
    40   144   143    2
    41    31    32    1
    42    14    12   ar
    43    59    56    1
    44   133   136    1
    45   133   132    1
    46    17    15   ar
    47   143   145   am
    48    21    20    2
    49   136   137    1
    50    56    57    1
    51   157   154    1
    52   157   158    1
    53   154   153    1
    54    12    11    1
    55    12    13   ar
    56   138   137    1
    57   138   139    1
    58    20    19    1
    59   145   146    1
    60    15    13   ar
    61    11     8    1
    62    58    57    2
    63    57    62   am
    64   146   149    1
    65   146   147    1
    66   158   159   ar
    67   158   160   ar
    68   139   140    1
    69    18    19    1
    70    18     9   am
    71    19    22    1
    72   159   161   ar
    73   149   150    1
    74     8     9    1
    75     8     7    1
    76   147   148    2
    77   160   162   ar
    78    62    63    1
    79     9    10    2
    80   151   150    2
    81    22    23    1
    82   150   152   am
    83     4     3    2
    84   161   162   ar
    85     7     3   am
    86     3     2    1
    87    63    64    1
    88    63    66    1
    89    64    65    2
    90    23    24    1
    91     1     2    1
    92   129   128    2
    93    25    24   ar
    94     2     5    1
    95    24    26   ar
    96    66    67    1
    97   128   127    1
    98   122   124   ar
    99   122   121   ar
   100   127   130    1
   101   127   126    1
   102   124   125   ar
   103   130   131    1
   104    68    67    1
   105    68    69    1
   106     5     6    1
   107   120   121    1
   108   120   117    1
   109   121   123   ar
   110   115   113   ar
   111   117   116    1
   112   117   118    1
   113   125   123   ar
   114   119   118    2
   115    69    70    1
   116   113   112    1
   117   113   114   ar
   118   112   109    1
   119    78    80   ar
   120    78    76   ar
   121    80    81   ar
   122    76    75    1
   123    76    77   ar
   124    75    72    1
   125    81    79   ar
   126    77    79   ar
   127   100    98   ar
   128   100   101   ar
   129    98    97   ar
   130   109   108    1
   131   109   110    1
   132    91    90   ar
   133    91    89   ar
   134    71    72    1
   135   111   110    2
   136    72    73    1
   137   101    99   ar
   138    97    96    1
   139    97    99   ar
   140    90    88   ar
   141   108   104   am
   142    96    93    1
   143    89    87   ar
   144    73    74    2
   145    88    87   ar
   146   104   105    2
   147   104   103    1
   148   106   103    1
   149   106   107    1
   150    87    86    1
   151   102   103    1
   152   102    94   am
   153    93    94    1
   154    93    92    1
   155    94    95    2
   156    86    83    1
   157    82    83    1
   158    83    84    1
   159    84    85    2
