@<TRIPOS>MOLECULE
tmp/1dd7A01.pdb
 147 147 0 0 0
SMALL
GASTEIGER

@<TRIPOS>ATOM
      1  N         66.7980  -17.1410   60.7550 N.3    75  TRP75      -0.1241
      2  CA        66.8480  -15.6930   60.5510 C.3    75  TRP75       0.1605
      3  C         67.5360  -15.0790   61.7680 C.2    75  TRP75       0.2264
      4  O         68.4190  -14.2090   61.6300 O.2    75  TRP75      -0.2867
      5  CB        65.4280  -15.1060   60.4050 C.3    75  TRP75       0.0550
      6  CG        65.3910  -13.5860   60.1360 C.ar   75  TRP75       0.0003
      7  CD1       66.4600  -12.7740   59.8440 C.ar   75  TRP75       0.0946
      8  CD2       64.2270  -12.7330   60.1300 C.ar   75  TRP75       0.0152
      9  NE1       66.0350  -11.4760   59.6640 N.ar   75  TRP75      -0.2442
     10  CE2       64.6720  -11.4180   59.8300 C.ar   75  TRP75       0.0810
     11  CE3       62.8560  -12.9530   60.3380 C.ar   75  TRP75       0.0012
     12  CZ2       63.7890  -10.3200   59.7360 C.ar   75  TRP75       0.0191
     13  CZ3       61.9710  -11.8550   60.2350 C.ar   75  TRP75       0.0001
     14  CH2       62.4530  -10.5540   59.9390 C.ar   75  TRP75       0.0015
     15  N         75.0410  -11.0570   60.2250 N.3    80  ARG80      -0.1231
     16  CA        74.9480   -9.7220   59.6470 C.3    80  ARG80       0.1694
     17  C         73.5260   -9.1250   59.4120 C.2    80  ARG80       0.2592
     18  O         73.4150   -7.9350   59.0890 O.2    80  ARG80      -0.2718
     19  CB        75.8350   -9.6410   58.3750 C.3    80  ARG80       0.0321
     20  CG        77.2680  -10.2770   58.5350 C.3    80  ARG80       0.0489
     21  CD        78.2570  -10.0850   57.3250 C.3    80  ARG80       0.2205
     22  NE        78.1490  -11.0230   56.1760 N.pl3  80  ARG80      -0.0865
     23  CZ        78.4010  -12.3450   56.1860 C.cat  80  ARG80       0.5346
     24  NH1       78.7760  -12.9820   57.2950 N.pl3  80  ARG80       0.1354
     25  NH2       78.3660  -13.0330   55.0480 N.pl3  80  ARG80       0.1354
     26  N         72.4420   -9.9000   59.5560 N.am   81  CYS81      -0.1970
     27  CA        71.1200   -9.3180   59.3520 C.3    81  CYS81       0.1712
     28  C         70.6570   -8.3560   60.4380 C.2    81  CYS81       0.2296
     29  O         70.4310   -8.7690   61.5770 O.2    81  CYS81      -0.2864
     30  CB        70.0610  -10.4170   59.1800 C.3    81  CYS81       0.0983
     31  SG        68.4680   -9.7960   58.5110 S.3    81  CYS81      -0.0798
     32  N         69.0920  -12.3370   43.6380 N.3   144  GLN144     -0.1245
     33  CA        67.9500  -11.6220   44.2280 C.3   144  GLN144      0.1566
     34  C         66.7430  -11.8220   43.3060 C.2   144  GLN144      0.2260
     35  O         66.9160  -11.9910   42.0960 O.2   144  GLN144     -0.2867
     36  CB        68.2380  -10.1350   44.3330 C.3   144  GLN144      0.0367
     37  CG        69.3170   -9.7940   45.3000 C.3   144  GLN144      0.0905
     38  CD        69.6740   -8.3420   45.2580 C.2   144  GLN144      0.2608
     39  OE1       70.8530   -7.9950   45.2750 O.2   144  GLN144     -0.2717
     40  NE2       68.6710   -7.4700   45.2280 N.am  144  GLN144     -0.0878
     41  N         66.3350   -7.7300   40.2780 N.3   147  ARG147     -0.1245
     42  CA        67.6390   -7.0970   40.0440 C.3   147  ARG147      0.1563
     43  C         67.7350   -6.6060   38.5870 C.2   147  ARG147      0.2260
     44  O         67.0290   -7.1410   37.7200 O.2   147  ARG147     -0.2867
     45  CB        68.7900   -8.0750   40.3740 C.3   147  ARG147      0.0307
     46  CG        69.9750   -7.3920   41.0410 C.3   147  ARG147      0.0489
     47  CD        71.0360   -8.3410   41.5370 C.3   147  ARG147      0.2205
     48  NE        72.1320   -7.5650   42.1120 N.pl3 147  ARG147     -0.0865
     49  CZ        73.3190   -8.0580   42.4600 C.cat 147  ARG147      0.5346
     50  NH1       73.5940   -9.3480   42.3040 N.pl3 147  ARG147      0.1354
     51  NH2       74.2460   -7.2520   42.9680 N.pl3 147  ARG147      0.1354
     52  N         63.8460   -6.0150   48.3980 N.3   218  PRO218     -0.2102
     53  CA        65.1540   -6.6750   48.4790 C.3   218  PRO218      0.1504
     54  C         64.9300   -8.1370   48.9050 C.2   218  PRO218      0.2576
     55  O         64.5920   -8.4170   50.0740 O.2   218  PRO218     -0.2718
     56  CB        65.8960   -5.8440   49.5380 C.3   218  PRO218      0.0282
     57  CG        64.8260   -5.4710   50.4710 C.3   218  PRO218      0.0208
     58  CD        63.5810   -5.2160   49.6070 C.3   218  PRO218      0.0893
     59  N         65.0860   -9.0600   47.9440 N.am  219  ALA219     -0.1966
     60  CA        64.8680  -10.4610   48.2000 C.3   219  ALA219      0.1728
     61  C         66.0660  -11.3580   47.8670 C.2   219  ALA219      0.2616
     62  O         66.4710  -11.4100   46.7060 O.2   219  ALA219     -0.2715
     63  CB        63.6380  -10.9050   47.4190 C.3   219  ALA219      0.0334
     64  N         66.5900  -12.1050   48.8460 N.am  220  VAL220     -0.1977
     65  CA        67.7170  -12.9860   48.5820 C.3   220  VAL220      0.1596
     66  C         67.1090  -14.2430   47.9860 C.2   220  VAL220      0.2287
     67  O         66.2210  -14.8510   48.5760 O.2   220  VAL220     -0.2864
     68  CB        68.5320  -13.3180   49.8560 C.3   220  VAL220      0.0276
     69  CG1       69.7020  -14.2170   49.5330 C.3   220  VAL220      0.0022
     70  CG2       69.0910  -12.0510   50.4780 C.3   220  VAL220      0.0022
     71  N         70.0720  -18.6230   48.7160 N.3   223  MET223     -0.1245
     72  CA        70.6280  -19.2610   49.9020 C.3   223  MET223      0.1570
     73  C         70.0310  -20.6250   50.2150 C.2   223  MET223      0.2261
     74  O         69.0180  -21.0260   49.5920 O.2   223  MET223     -0.2867
     75  CB        70.5680  -18.3150   51.0820 C.3   223  MET223      0.0387
     76  CG        71.5840  -17.2140   50.8750 C.3   223  MET223      0.0595
     77  SD        71.6800  -16.0650   52.2240 S.3   223  MET223     -0.1393
     78  CE        72.8460  -16.8720   53.2620 C.3   223  MET223      0.0692
     79  N         63.7260  -15.3170   50.2490 N.3   237  PHE237     -0.1227
     80  CA        63.1650  -14.4840   51.3320 C.3   237  PHE237      0.1736
     81  C         63.3910  -13.0130   51.0390 C.2   237  PHE237      0.2595
     82  O         64.1190  -12.6670   50.1050 O.2   237  PHE237     -0.2718
     83  CB        63.7580  -14.8340   52.7300 C.3   237  PHE237      0.0547
     84  CG        65.2590  -14.6450   52.8490 C.ar  237  PHE237     -0.0202
     85  CD1       65.8050  -13.3750   53.0460 C.ar  237  PHE237     -0.0042
     86  CD2       66.1170  -15.7530   52.8110 C.ar  237  PHE237     -0.0042
     87  CE1       67.1780  -13.2020   53.2080 C.ar  237  PHE237     -0.0003
     88  CE2       67.5050  -15.6010   52.9700 C.ar  237  PHE237     -0.0003
     89  CZ        68.0360  -14.3120   53.1710 C.ar  237  PHE237     -0.0000
     90  N         62.7420  -12.1520   51.8170 N.am  238  ASN238     -0.1960
     91  CA        62.9120  -10.7220   51.6590 C.3   238  ASN238      0.1819
     92  C         62.6630   -9.9930   52.9660 C.2   238  ASN238      0.2622
     93  O         62.1930  -10.5790   53.9440 O.2   238  ASN238     -0.2715
     94  CB        61.9540  -10.1750   50.5880 C.3   238  ASN238      0.1195
     95  CG        60.4910  -10.1270   51.0610 C.2   238  ASN238      0.2630
     96  OD1       59.7810  -11.1370   51.0290 O.2   238  ASN238     -0.2716
     97  ND2       60.0460   -8.9560   51.5070 N.am  238  ASN238     -0.0877
     98  N         63.0190   -8.7190   52.9590 N.am  239  GLY239     -0.1940
     99  CA        62.7930   -7.8280   54.0780 C.3   239  GLY239      0.2014
    100  C         62.5000   -6.5030   53.3910 C.2   239  GLY239      0.2639
    101  O         61.7710   -6.4620   52.3930 O.2   239  GLY239     -0.2714
    102  N         62.9720   -5.4080   53.9740 N.am  240  TRP240     -0.1959
    103  CA        62.8480   -4.0940   53.3480 C.3   240  TRP240      0.1771
    104  C         64.2240   -3.4670   53.5190 C.2   240  TRP240      0.2620
    105  O         65.0530   -3.9260   54.3100 O.2   240  TRP240     -0.2715
    106  CB        61.7520   -3.2100   53.9510 C.3   240  TRP240      0.0590
    107  CG        61.7720   -3.1200   55.4340 C.ar  240  TRP240      0.0006
    108  CD1       62.6710   -2.4380   56.2050 C.ar  240  TRP240      0.0946
    109  CD2       60.8780   -3.7880   56.3410 C.ar  240  TRP240      0.0152
    110  NE1       62.3990   -2.6500   57.5350 N.ar  240  TRP240     -0.2442
    111  CE2       61.3080   -3.4750   57.6500 C.ar  240  TRP240      0.0810
    112  CE3       59.7620   -4.6350   56.1730 C.ar  240  TRP240      0.0012
    113  CZ2       60.6620   -3.9840   58.8020 C.ar  240  TRP240      0.0191
    114  CZ3       59.1290   -5.1430   57.3000 C.ar  240  TRP240      0.0001
    115  CH2       59.5820   -4.8150   58.6040 C.ar  240  TRP240      0.0015
    116  N         64.4960   -2.4700   52.7070 N.am  241  TYR241     -0.1960
    117  CA        65.7650   -1.8170   52.7680 C.3   241  TYR241      0.1771
    118  C         66.0550   -1.1960   54.1260 C.2   241  TYR241      0.2619
    119  O         65.1570   -0.9720   54.9350 O.2   241  TYR241     -0.2715
    120  CB        65.8770   -0.8370   51.6150 C.3   241  TYR241      0.0574
    121  CG        66.3000   -1.5440   50.3460 C.ar  241  TYR241     -0.0198
    122  CD1       67.5420   -2.1920   50.2780 C.ar  241  TYR241     -0.0009
    123  CD2       65.4820   -1.5530   49.2040 C.ar  241  TYR241     -0.0009
    124  CE1       67.9730   -2.8290   49.0960 C.ar  241  TYR241      0.0417
    125  CE2       65.8980   -2.1940   48.0190 C.ar  241  TYR241      0.0417
    126  CZ        67.1450   -2.8280   47.9730 C.ar  241  TYR241      0.1957
    127  OH        67.5710   -3.4690   46.8270 O.3   241  TYR241     -0.2866
    128  N         67.3420   -1.0270   54.4080 N.am  242  MET242     -0.1977
    129  CA        67.7960   -0.4540   55.6670 C.3   242  MET242      0.1605
    130  C         67.7960    1.0790   55.6610 C.2   242  MET242      0.2287
    131  O         68.2540    1.7050   54.7020 O.2   242  MET242     -0.2864
    132  CB        69.1950   -0.9760   56.0030 C.3   242  MET242      0.0413
    133  CG        69.2300   -2.2380   56.8500 C.3   242  MET242      0.0598
    134  SD        68.7590   -1.9680   58.5680 S.3   242  MET242     -0.1393
    135  CE        69.8040   -0.5630   59.0490 C.3   242  MET242      0.0692
    136  N         75.2910  -19.9420   52.1620 N.3   283  TYR283     -0.1241
    137  CA        75.5140  -19.4760   50.8120 C.3   283  TYR283      0.1605
    138  C         75.6980  -20.7640   49.9940 C.2   283  TYR283      0.2264
    139  O         75.8690  -21.8620   50.5680 O.2   283  TYR283     -0.2867
    140  CB        76.7460  -18.5940   50.7460 C.3   283  TYR283      0.0534
    141  CG        76.4730  -17.2570   51.3210 C.ar  283  TYR283     -0.0201
    142  CD1       75.8110  -16.2800   50.5840 C.ar  283  TYR283     -0.0009
    143  CD2       76.8440  -16.9660   52.6150 C.ar  283  TYR283     -0.0009
    144  CE1       75.5320  -15.0320   51.1360 C.ar  283  TYR283      0.0417
    145  CE2       76.5660  -15.7250   53.1840 C.ar  283  TYR283      0.0417
    146  CZ        75.9120  -14.7720   52.4420 C.ar  283  TYR283      0.1957
    147  OH        75.6470  -13.5650   53.0260 O.3   283  TYR283     -0.2866
@<TRIPOS>BOND
     1    44    43    2
     2    43    42    1
     3    42    41    1
     4    42    45    1
     5    45    46    1
     6    46    47    1
     7    47    48    1
     8    35    34    2
     9    48    49    2
    10    50    49    1
    11    49    51    1
    12    34    33    1
    13    32    33    1
    14    33    36    1
    15    36    37    1
    16    40    38   am
    17    38    39    2
    18    38    37    1
    19    62    61    2
    20   127   126    1
    21    63    60    1
    22    61    60    1
    23    61    64   am
    24    59    60    1
    25    59    54   am
    26   126   125   ar
    27   126   124   ar
    28    66    67    2
    29    66    65    1
    30   125   123   ar
    31    52    53    1
    32    52    58    1
    33    53    54    1
    34    53    56    1
    35    65    64    1
    36    65    68    1
    37    71    72    1
    38    54    55    2
    39   124   122   ar
    40   123   121   ar
    41    69    68    1
    42    56    57    1
    43    74    73    2
    44    58    57    1
    45    68    70    1
    46    72    73    1
    47    72    75    1
    48   138   139    2
    49   138   137    1
    50    82    81    2
    51    79    80    1
    52   122   121   ar
    53   121   120    1
    54   142   144   ar
    55   142   141   ar
    56    94    95    1
    57    94    91    1
    58   140   137    1
    59   140   141    1
    60   137   136    1
    61    76    75    1
    62    76    77    1
    63    96    95    2
    64    81    80    1
    65    81    90   am
    66    95    97   am
    67   144   146   ar
    68   141   143   ar
    69    80    83    1
    70   120   117    1
    71    91    90    1
    72    91    92    1
    73    77    78    1
    74   101   100    2
    75   146   147    1
    76   146   145   ar
    77   143   145   ar
    78   116   117    1
    79   116   104   am
    80    83    84    1
    81   117   118    1
    82    86    84   ar
    83    86    88   ar
    84    84    85   ar
    85    98    92   am
    86    98    99    1
    87    92    93    2
    88    88    89   ar
    89    85    87   ar
    90    89    87   ar
    91   103   104    1
    92   103   106    1
    93   103   102    1
    94   100   102   am
    95   100    99    1
    96   104   105    2
    97   106   107    1
    98   118   128   am
    99   118   119    2
   100   128   129    1
   101   131   130    2
   102    25    23    1
   103   107   108   ar
   104   107   109   ar
   105   130   129    1
   106   129   132    1
   107   132   133    1
   108   112   109   ar
   109   112   114   ar
   110    22    23    2
   111    22    21    1
   112    23    24    1
   113   108   110   ar
   114   109   111   ar
   115   133   134    1
   116   114   115   ar
   117    21    20    1
   118   110   111   ar
   119   111   113   ar
   120    19    20    1
   121    19    16    1
   122    31    30    1
   123   134   135    1
   124   115   113   ar
   125    18    17    2
   126    30    27    1
   127    27    26    1
   128    27    28    1
   129    17    26   am
   130    17    16    1
   131    16    15    1
   132     9    10   ar
   133     9     7   ar
   134    12    10   ar
   135    12    14   ar
   136    10     8   ar
   137     7     6   ar
   138    14    13   ar
   139     8     6   ar
   140     8    11   ar
   141     6     5    1
   142    13    11   ar
   143     5     2    1
   144    28    29    2
   145     2     1    1
   146     2     3    1
   147     4     3    2
