@<TRIPOS>MOLECULE
tmp/1ddiA01.pdb
 133 126 0 0 0
SMALL
GASTEIGER

@<TRIPOS>ATOM
      1  N          7.3110   61.4080   -6.3620 N.3    29  LYS29      -0.1245
      2  CA         6.8010   62.6790   -5.8300 C.3    29  LYS29       0.1561
      3  C          6.2720   63.5320   -6.9660 C.2    29  LYS29       0.2260
      4  O          6.6240   63.5010   -8.1350 O.2    29  LYS29      -0.2867
      5  CB         7.8600   63.4720   -5.0930 C.3    29  LYS29       0.0271
      6  CG         8.8690   62.7000   -4.2760 C.3    29  LYS29       0.0035
      7  CD        10.2430   63.4250   -4.3230 C.3    29  LYS29       0.0206
      8  CE        11.0520   62.9060   -3.1200 C.3    29  LYS29       0.1093
      9  NZ        10.2990   63.1280   -1.8560 N.3    29  LYS29      -0.1314
     10  N         18.2600   68.8550    1.1490 N.2   235  PRO235     -0.2571
     11  CA        17.6120   67.7590    0.4350 C.3   235  PRO235      0.2026
     12  C         16.1500   67.9850    0.0860 C.2   235  PRO235      0.2684
     13  O         15.4930   68.7710    0.7960 O.2   235  PRO235     -0.2709
     14  CB        17.6360   66.5350    1.4020 C.2   235  PRO235      0.0085
     15  CG        18.0950   67.0950    2.7050 C.2   235  PRO235      0.0180
     16  CD        18.5270   68.5330    2.5730 C.2   235  PRO235      0.0938
     17  N         15.6010   67.2780   -0.9350 N.am  236  GLY236     -0.1950
     18  CA        14.1680   67.3120   -1.2230 C.3   236  GLY236      0.1869
     19  C         13.7090   68.7600   -1.4640 C.2   236  GLY236      0.2309
     20  O         14.5000   69.5280   -2.0370 O.2   236  GLY236     -0.2863
     21  N         19.8790   65.7390   -1.8850 N.3   263  GLY263     -0.1210
     22  CA        19.5290   64.3660   -1.7990 C.3   263  GLY263      0.1956
     23  C         18.0700   64.1440   -2.0480 C.2   263  GLY263      0.2612
     24  O         17.2440   65.0290   -1.8940 O.2   263  GLY263     -0.2717
     25  N         17.7050   62.9400   -2.4150 N.am  264  ASN264     -0.1960
     26  CA        16.3280   62.5950   -2.7810 C.3   264  ASN264      0.1804
     27  C         16.4500   61.1410   -3.2650 C.2   264  ASN264      0.2463
     28  O         17.5320   60.5140   -3.2280 O.2   264  ASN264     -0.2730
     29  CB        15.8250   63.5140   -3.9060 C.3   264  ASN264      0.1195
     30  CG        14.6280   64.3440   -3.4970 C.2   264  ASN264      0.2630
     31  OD1       14.1000   64.2270   -2.3780 O.2   264  ASN264     -0.2716
     32  ND2       14.1850   65.1570   -4.4510 N.am  264  ASN264     -0.0877
     33  N         15.3360   60.5100   -3.5410 N.am  265  PRO265     -0.2727
     34  CA        15.3130   59.0820   -3.8260 C.3   265  PRO265      0.1402
     35  C         16.0480   58.6150   -5.0680 C.2   265  PRO265      0.2269
     36  O         16.9520   57.7290   -5.0350 O.2   265  PRO265     -0.2865
     37  CB        13.8140   58.7690   -3.9380 C.3   265  PRO265      0.0296
     38  CG        13.1210   59.8300   -3.0990 C.3   265  PRO265      0.0237
     39  CD        13.9740   61.0770   -3.3350 C.3   265  PRO265      0.0939
     40  N         23.1170   62.6690   -2.6820 N.3   292  ALA292     -0.1245
     41  CA        22.7460   61.4500   -2.0450 C.3   292  ALA292      0.1562
     42  C         21.4080   60.9450   -2.6100 C.2   292  ALA292      0.2260
     43  O         20.3100   61.4390   -2.3420 O.2   292  ALA292     -0.2867
     44  CB        22.5660   61.5830   -0.5650 C.3   292  ALA292      0.0290
     45  N         18.8630   58.0030   -2.1630 N.3   294  SER294     -0.1202
     46  CA        18.4880   57.0430   -1.1960 C.3   294  SER294      0.2020
     47  C         17.9890   55.7260   -1.7790 C.2   294  SER294      0.2618
     48  O         17.9300   54.7350   -1.0470 O.2   294  SER294     -0.2717
     49  CB        17.4250   57.5400   -0.1990 C.3   294  SER294      0.2103
     50  OG        16.2850   57.9460   -0.9470 O.3   294  SER294     -0.2182
     51  N         17.3610   55.7540   -2.9320 N.am  295  ARG295     -0.1979
     52  CA        16.6870   54.5780   -3.4390 C.3   295  ARG295      0.1597
     53  C         17.3580   54.1380   -4.7270 C.2   295  ARG295      0.2287
     54  O         16.7330   53.3120   -5.3940 O.2   295  ARG295     -0.2864
     55  CB        15.2040   54.8170   -3.6860 C.3   295  ARG295      0.0334
     56  CG        14.5800   55.0860   -2.3190 C.3   295  ARG295      0.0492
     57  CD        13.1410   54.6960   -2.2190 C.3   295  ARG295      0.2205
     58  NE        12.4030   55.4910   -1.2420 N.pl3 295  ARG295     -0.0865
     59  CZ        11.0890   55.4040   -1.0270 C.cat 295  ARG295      0.5346
     60  NH1       10.3490   54.5390   -1.7170 N.pl3 295  ARG295      0.1354
     61  NH2       10.4950   56.1580   -0.1140 N.pl3 295  ARG295      0.1354
     62  N         20.6070   52.7080    1.6380 N.3   300  LYS300     -0.1245
     63  CA        20.0270   54.0290    1.7550 C.3   300  LYS300      0.1561
     64  C         21.1770   55.0160    2.0150 C.2   300  LYS300      0.2260
     65  O         22.1230   54.7260    2.7570 O.2   300  LYS300     -0.2867
     66  CB        18.9740   54.0650    2.8550 C.3   300  LYS300      0.0271
     67  CG        17.6420   53.4410    2.4920 C.3   300  LYS300      0.0035
     68  CD        16.6760   53.6160    3.6530 C.3   300  LYS300      0.0206
     69  CE        15.3020   53.0850    3.3160 C.3   300  LYS300      0.1093
     70  NZ        14.7380   53.6010    2.0370 N.3   300  LYS300     -0.1314
     71  N         22.0660   59.2470    2.4730 N.3   302  TYR302     -0.1227
     72  CA        21.5250   60.5700    2.7300 C.3   302  TYR302      0.1736
     73  C         22.6110   61.6110    2.8570 C.2   302  TYR302      0.2595
     74  O         23.8040   61.3450    2.9860 O.2   302  TYR302     -0.2718
     75  CB        20.6820   60.6170    4.0150 C.3   302  TYR302      0.0548
     76  CG        19.5290   59.6650    3.8970 C.ar  302  TYR302     -0.0200
     77  CD1       19.6340   58.3740    4.4130 C.ar  302  TYR302     -0.0009
     78  CD2       18.3610   60.0550    3.2620 C.ar  302  TYR302     -0.0009
     79  CE1       18.5650   57.4910    4.3080 C.ar  302  TYR302      0.0417
     80  CE2       17.3150   59.1800    3.1550 C.ar  302  TYR302      0.0417
     81  CZ        17.4070   57.8950    3.6690 C.ar  302  TYR302      0.1957
     82  OH        16.3460   57.0350    3.5280 O.3   302  TYR302     -0.2866
     83  N         22.1720   62.8670    2.8120 N.am  303  VAL303     -0.1966
     84  CA        23.1230   63.9550    2.8720 C.3   303  VAL303      0.1727
     85  C         24.0690   63.8400    4.0620 C.2   303  VAL303      0.2616
     86  O         25.2670   64.1700    3.9130 O.2   303  VAL303     -0.2715
     87  CB        22.4670   65.3540    2.8360 C.3   303  VAL303      0.0290
     88  CG1       21.8600   65.6470    1.4710 C.3   303  VAL303      0.0023
     89  CG2       21.3930   65.4620    3.9240 C.3   303  VAL303      0.0023
     90  N         23.5920   63.3810    5.2140 N.am  304  GLN304     -0.1977
     91  CA        24.4900   63.2190    6.3640 C.3   304  GLN304      0.1601
     92  C         25.6340   62.2490    6.0550 C.2   304  GLN304      0.2287
     93  O         26.7920   62.4230    6.5090 O.2   304  GLN304     -0.2864
     94  CB        23.7940   62.8470    7.6880 C.3   304  GLN304      0.0394
     95  CG        22.9140   61.6390    7.6690 C.3   304  GLN304      0.0908
     96  CD        21.5010   61.8190    7.1560 C.2   304  GLN304      0.2608
     97  OE1       21.1730   62.8260    6.5030 O.2   304  GLN304     -0.2717
     98  NE2       20.6670   60.8060    7.3930 N.am  304  GLN304     -0.0878
     99  N         13.4340   69.1990    6.0040 N.3   329  ASP329     -0.1239
    100  CA        12.7240   68.4430    7.0360 C.3   329  ASP329      0.1674
    101  C         13.3470   68.5680    8.4170 C.2   329  ASP329      0.2266
    102  O         14.5100   68.1810    8.6050 O.2   329  ASP329     -0.2867
    103  CB        12.6540   66.9740    6.5920 C.3   329  ASP329      0.1410
    104  CG        12.2880   66.1060    7.8100 C.2   329  ASP329      0.3668
    105  OD1       11.2500   66.3290    8.4900 O.co2 329  ASP329     -0.2456
    106  OD2       13.0150   65.1530    8.2350 O.co2 329  ASP329     -0.2456
    107  N         13.7160   64.4890   10.9290 N.3   332  ARG332     -0.1231
    108  CA        14.8060   63.5310   10.9780 C.3   332  ARG332      0.1694
    109  C         16.0190   64.1150   10.3040 C.2   332  ARG332      0.2591
    110  O         17.0970   64.1700   10.9190 O.2   332  ARG332     -0.2718
    111  CB        14.2510   62.2320   10.4070 C.3   332  ARG332      0.0321
    112  CG        15.2440   61.0720   10.4240 C.3   332  ARG332      0.0489
    113  CD        14.6250   59.9050    9.6070 C.3   332  ARG332      0.2205
    114  NE        14.6150   60.3350    8.2010 N.pl3 332  ARG332     -0.0865
    115  CZ        15.5510   59.8480    7.3620 C.cat 332  ARG332      0.5346
    116  NH1       16.3980   58.9590    7.8280 N.pl3 332  ARG332      0.1354
    117  NH2       15.5830   60.2700    6.1180 N.pl3 332  ARG332      0.1354
    118  N         15.8410   64.7890    9.1680 N.am  333  MET333     -0.1979
    119  CA        16.9680   65.3560    8.4090 C.3   333  MET333      0.1605
    120  C         17.7530   66.4030    9.1810 C.2   333  MET333      0.2287
    121  O         18.9450   66.1790    9.3770 O.2   333  MET333     -0.2864
    122  CB        16.5030   65.8480    7.0360 C.3   333  MET333      0.0413
    123  CG        17.5590   66.4220    6.0910 C.3   333  MET333      0.0598
    124  SD        18.2930   67.9630    6.5930 S.3   333  MET333     -0.1393
    125  CE        16.9000   69.0640    6.2580 C.3   333  MET333      0.0692
    126  N         19.6170   64.5320   11.8510 N.3   336  ASP336     -0.1239
    127  CA        20.7600   63.7610   11.3690 C.3   336  ASP336      0.1674
    128  C         21.8830   64.5680   10.7450 C.2   336  ASP336      0.2266
    129  O         23.0050   64.0870   10.7990 O.2   336  ASP336     -0.2867
    130  CB        20.3280   62.7320   10.3490 C.3   336  ASP336      0.1410
    131  CG        19.2820   61.8140   10.9590 C.2   336  ASP336      0.3668
    132  OD1       19.2920   61.5820   12.1960 O.co2 336  ASP336     -0.2456
    133  OD2       18.4080   61.3320   10.2100 O.co2 336  ASP336     -0.2456
@<TRIPOS>BOND
     1     4     3    2
     2     3     2    1
     3     1     2    1
     4     2     5    1
     5    54    53    2
     6     5     6    1
     7    35    36    2
     8    35    34    1
     9    53    52    1
    10    32    30   am
    11     7     6    1
    12     7     8    1
    13    37    34    1
    14    37    38    1
    15    29    30    1
    16    29    26    1
    17    34    33    1
    18    55    52    1
    19    55    56    1
    20    33    39    1
    21    33    27   am
    22    30    31    2
    23    52    51    1
    24    39    38    1
    25    27    28    2
    26    27    26    1
    27     8     9    1
    28    51    47   am
    29    26    25    1
    30    40    41    1
    31    42    43    2
    32    42    41    1
    33    25    23   am
    34    56    57    1
    35    57    58    1
    36    45    46    1
    37    23    24    2
    38    23    22    1
    39    41    44    1
    40    20    19    2
    41    21    22    1
    42    47    46    1
    43    47    48    2
    44    60    59    1
    45    19    18    1
    46    58    59    2
    47    18    17    1
    48    46    49    1
    49    59    61    1
    50    50    49    1
    51    17    12   am
    52    12    11    1
    53    12    13    2
    54    11    10    1
    55    11    14    1
    56    10    16    2
    57    14    15    2
    58    88    87    1
    59    62    63    1
    60    63    64    1
    61    63    66    1
    62    64    65    2
    63    70    69    1
    64    71    72    1
    65    67    66    1
    66    67    68    1
    67    16    15    1
    68    72    73    1
    69    72    75    1
    70    83    73   am
    71    83    84    1
    72    87    84    1
    73    87    89    1
    74    73    74    2
    75    84    85    1
    76    80    78   ar
    77    80    81   ar
    78    78    76   ar
    79    69    68    1
    80    82    81    1
    81    81    79   ar
    82    76    75    1
    83    76    77   ar
    84    86    85    2
    85    85    90   am
    86    79    77   ar
    87    90    91    1
    88    99   100    1
    89    92    91    1
    90    92    93    2
    91   123   124    1
    92   123   122    1
    93   117   115    1
    94   125   124    1
    95    91    94    1
    96    97    96    2
    97   103   100    1
    98   103   104    1
    99   122   119    1
   100   100   101    1
   101    96    98   am
   102    96    95    1
   103   115   116    1
   104   115   114    2
   105    95    94    1
   106   104   106   ar
   107   104   105   ar
   108   114   113    1
   109   119   118    1
   110   119   120    1
   111   101   102    2
   112   118   109   am
   113   120   121    2
   114   113   112    1
   115   133   131   ar
   116   109   110    2
   117   109   108    1
   118   130   131    1
   119   130   127    1
   120   111   112    1
   121   111   108    1
   122   128   129    2
   123   128   127    1
   124   107   108    1
   125   131   132   ar
   126   127   126    1
