@<TRIPOS>MOLECULE
tmp/1ddlC00.pdb
 123 121 0 0 0
SMALL
GASTEIGER

@<TRIPOS>ATOM
      1  N          3.9790   54.5780  125.6460 N.3    93  LEU93      -0.1231
      2  CA         3.4680   53.2520  125.3630 C.3    93  LEU93       0.1693
      3  C          4.2050   52.5800  124.2270 C.2    93  LEU93       0.2592
      4  O          4.9040   53.2180  123.4580 O.2    93  LEU93      -0.2718
      5  CB         1.9630   53.2770  125.1360 C.3    93  LEU93       0.0284
      6  CG         1.3300   54.3670  124.2960 C.3    93  LEU93       0.0019
      7  CD1        1.4260   53.9420  122.8770 C.3    93  LEU93       0.0001
      8  CD2       -0.1130   54.3890  124.6850 C.3    93  LEU93       0.0001
      9  N          4.0920   51.2600  124.1890 N.am   94  VAL94      -0.1966
     10  CA         4.7400   50.4330  123.1830 C.3    94  VAL94       0.1727
     11  C          4.0050   49.0960  123.1100 C.2    94  VAL94       0.2616
     12  O          3.4310   48.6440  124.1010 O.2    94  VAL94      -0.2715
     13  CB         6.2240   50.2080  123.5570 C.3    94  VAL94       0.0290
     14  CG1        6.3640   49.2470  124.7210 C.3    94  VAL94       0.0023
     15  CG2        7.0070   49.6380  122.4120 C.3    94  VAL94       0.0023
     16  N          3.9590   48.5190  121.9150 N.am   95  TRP95      -0.1974
     17  CA         3.3260   47.2340  121.6220 C.3    95  TRP95       0.1640
     18  C          4.4210   46.1770  121.4680 C.2    95  TRP95       0.2290
     19  O          5.3780   46.3790  120.7210 O.2    95  TRP95      -0.2864
     20  CB         2.5850   47.2880  120.2800 C.3    95  TRP95       0.0576
     21  CG         1.2670   48.0150  120.2490 C.ar   95  TRP95       0.0006
     22  CD1        0.9810   49.1900  119.6050 C.ar   95  TRP95       0.0946
     23  CD2        0.0370   47.5750  120.8180 C.ar   95  TRP95       0.0152
     24  NE1       -0.3400   49.5070  119.7440 N.ar   95  TRP95      -0.2442
     25  CE2       -0.9450   48.5280  120.4830 C.ar   95  TRP95       0.0810
     26  CE3       -0.3380   46.4410  121.5400 C.ar   95  TRP95       0.0012
     27  CZ2       -2.2750   48.3780  120.8420 C.ar   95  TRP95       0.0191
     28  CZ3       -1.6630   46.2960  121.8920 C.ar   95  TRP95       0.0001
     29  CH2       -2.6140   47.2550  121.5440 C.ar   95  TRP95       0.0015
     30  N          9.9360   51.4910  127.9170 N.3   107  VAL107     -0.1231
     31  CA         9.3100   51.8350  126.6520 C.3   107  VAL107      0.1692
     32  C         10.2890   52.4490  125.6570 C.2   107  VAL107      0.2591
     33  O         10.3710   52.0020  124.5150 O.2   107  VAL107     -0.2718
     34  CB         8.1330   52.8000  126.8580 C.3   107  VAL107      0.0266
     35  CG1        7.6690   53.3740  125.5300 C.3   107  VAL107      0.0020
     36  CG2        6.9970   52.0450  127.4890 C.3   107  VAL107      0.0020
     37  N         11.0480   53.4510  126.0800 N.am  108  LEU108     -0.1980
     38  CA        11.9730   54.0980  125.1590 C.3   108  LEU108      0.1596
     39  C         13.1590   53.2440  124.7550 C.2   108  LEU108      0.2287
     40  O         13.9430   53.6690  123.9170 O.2   108  LEU108     -0.2864
     41  CB        12.4550   55.4290  125.7260 C.3   108  LEU108      0.0297
     42  CG        11.3370   56.4660  125.8340 C.3   108  LEU108      0.0022
     43  CD1       11.9140   57.7980  126.2710 C.3   108  LEU108      0.0001
     44  CD2       10.6260   56.6360  124.5060 C.3   108  LEU108      0.0001
     45  N         12.6710   50.1860  123.6490 N.3   110  THR110     -0.1203
     46  CA        12.0210   49.1960  122.8120 C.3   110  THR110      0.1994
     47  C         11.5920   49.8050  121.4940 C.2   110  THR110      0.2618
     48  O         11.0110   50.8780  121.4450 O.2   110  THR110     -0.2717
     49  CB        10.7860   48.6660  123.5130 C.3   110  THR110      0.1784
     50  OG1       11.1740   48.2410  124.8200 O.3   110  THR110     -0.2211
     51  CG2       10.2110   47.4940  122.7590 C.3   110  THR110      0.0376
     52  N         11.8500   49.0850  120.4170 N.am  111  TYR111     -0.1961
     53  CA        11.5200   49.5830  119.1020 C.3   111  TYR111      0.1771
     54  C         10.0630   49.9770  119.0000 C.2   111  TYR111      0.2620
     55  O          9.1760   49.2210  119.3690 O.2   111  TYR111     -0.2715
     56  CB        11.8640   48.5140  118.0750 C.3   111  TYR111      0.0574
     57  CG        11.5830   48.9410  116.6620 C.ar  111  TYR111     -0.0198
     58  CD1       12.4960   49.6880  115.9370 C.ar  111  TYR111     -0.0009
     59  CD2       10.4160   48.5590  116.0360 C.ar  111  TYR111     -0.0009
     60  CE1       12.2460   50.0390  114.6250 C.ar  111  TYR111      0.0417
     61  CE2       10.1600   48.9010  114.7290 C.ar  111  TYR111      0.0417
     62  CZ        11.0710   49.6410  114.0210 C.ar  111  TYR111      0.1957
     63  OH        10.7680   49.9860  112.7210 O.3   111  TYR111     -0.2866
     64  N          9.8160   51.1710  118.4850 N.am  112  GLY112     -0.1940
     65  CA         8.4710   51.6980  118.3140 C.3   112  GLY112      0.2014
     66  C          7.8440   52.3510  119.5300 C.2   112  GLY112      0.2639
     67  O          6.7490   52.8980  119.4140 O.2   112  GLY112     -0.2714
     68  N          8.4880   52.2950  120.6880 N.am  113  GLY113     -0.1954
     69  CA         7.9970   52.9090  121.9160 C.3   113  GLY113      0.1869
     70  C          8.0050   54.4220  121.7590 C.2   113  GLY113      0.2309
     71  O          8.9330   54.9640  121.1630 O.2   113  GLY113     -0.2863
     72  N         -1.3970   55.1150  118.1280 N.3   130  VAL130     -0.1231
     73  CA        -0.1470   54.3610  118.0830 C.3   130  VAL130      0.1692
     74  C         -0.5320   52.9870  117.5260 C.2   130  VAL130      0.2592
     75  O         -1.0500   52.1430  118.2540 O.2   130  VAL130     -0.2718
     76  CB         0.5060   54.2330  119.4630 C.3   130  VAL130      0.0266
     77  CG1        1.7410   53.3780  119.3600 C.3   130  VAL130      0.0020
     78  CG2        0.9170   55.5950  119.9730 C.3   130  VAL130      0.0020
     79  N         -0.3690   52.7990  116.2190 N.am  131  GLU131     -0.1966
     80  CA        -0.7500   51.5480  115.5750 C.3   131  GLU131      0.1733
     81  C          0.1530   50.3890  115.9350 C.2   131  GLU131      0.2616
     82  O          1.3520   50.5620  116.1080 O.2   131  GLU131     -0.2715
     83  CB        -0.7690   51.6990  114.0560 C.3   131  GLU131      0.0429
     84  CG        -1.9850   52.4270  113.5150 C.3   131  GLU131      0.1163
     85  CD        -1.8730   52.7720  112.0340 C.2   131  GLU131      0.3649
     86  OE1       -2.1720   53.9430  111.6770 O.co2 131  GLU131     -0.2457
     87  OE2       -1.4940   51.8730  111.2360 O.co2 131  GLU131     -0.2457
     88  N         -0.4440   49.2080  116.0480 N.am  132  ALA132     -0.1963
     89  CA         0.2620   47.9780  116.3590 C.3   132  ALA132      0.1728
     90  C          0.7170   47.3470  115.0480 C.2   132  ALA132      0.2616
     91  O         -0.0790   47.2240  114.1320 O.2   132  ALA132     -0.2715
     92  CB        -0.6730   47.0300  117.0580 C.3   132  ALA132      0.0334
     93  N          1.9850   46.9750  114.9060 N.am  133  ASN133     -0.1972
     94  CA         2.3960   46.3620  113.6510 C.3   133  ASN133      0.1688
     95  C          2.1420   44.8720  113.7250 C.2   133  ASN133      0.2292
     96  O          2.8540   44.1670  114.4350 O.2   133  ASN133     -0.2864
     97  CB         3.8750   46.5660  113.4050 C.3   133  ASN133      0.1181
     98  CG         4.3180   45.9960  112.0880 C.2   133  ASN133      0.2629
     99  OD1        3.9320   44.8980  111.6920 O.2   133  ASN133     -0.2716
    100  ND2        5.1210   46.7590  111.3810 N.am  133  ASN133     -0.0877
    101  N          2.9220   42.6060  111.8650 N.3   135  THR135     -0.1203
    102  CA         3.8710   41.6770  111.2850 C.3   135  THR135      0.1994
    103  C          4.8920   41.4010  112.3770 C.2   135  THR135      0.2618
    104  O          5.6280   40.4440  112.2850 O.2   135  THR135     -0.2717
    105  CB         4.5310   42.1210  109.9630 C.3   135  THR135      0.1784
    106  OG1        5.5210   43.1280  110.1960 O.3   135  THR135     -0.2211
    107  CG2        3.4730   42.6220  108.9870 C.3   135  THR135      0.0376
    108  N          4.8890   42.1780  113.4520 N.am  136  ASN136     -0.1960
    109  CA         5.8150   41.9220  114.5460 C.3   136  ASN136      0.1819
    110  C          5.0760   41.3380  115.7330 C.2   136  ASN136      0.2621
    111  O          5.6820   41.0420  116.7580 O.2   136  ASN136     -0.2715
    112  CB         6.4800   43.1900  115.0470 C.3   136  ASN136      0.1195
    113  CG         7.5210   43.7040  114.0930 C.2   136  ASN136      0.2630
    114  OD1        8.0340   42.9760  113.2370 O.2   136  ASN136     -0.2716
    115  ND2        7.8420   44.9790  114.2340 N.am  136  ASN136     -0.0877
    116  N          3.7630   41.2220  115.6010 N.am  137  LEU137     -0.1977
    117  CA         2.9280   40.6810  116.6560 C.3   137  LEU137      0.1596
    118  C          2.0170   39.6600  116.0300 C.2   137  LEU137      0.2287
    119  O          1.5660   39.8500  114.9060 O.2   137  LEU137     -0.2864
    120  CB         2.0600   41.7790  117.2440 C.3   137  LEU137      0.0297
    121  CG         2.8310   43.0050  117.7300 C.3   137  LEU137      0.0022
    122  CD1        1.8300   44.0420  118.1420 C.3   137  LEU137      0.0001
    123  CD2        3.7100   42.6460  118.9200 C.3   137  LEU137      0.0001
@<TRIPOS>BOND
     1   107   105    1
     2   105   106    1
     3   105   102    1
     4    87    85   ar
     5   102   101    1
     6   102   103    1
     7   100    98   am
     8    86    85   ar
     9    99    98    2
    10    85    84    1
    11    98    97    1
    12   104   103    2
    13   103   108   am
    14    63    62    1
    15   114   113    2
    16    97    94    1
    17   108   109    1
    18    84    83    1
    19    94    95    1
    20    94    93    1
    21    95    96    2
    22    62    60   ar
    23    62    61   ar
    24    83    80    1
    25   113   115   am
    26   113   112    1
    27    91    90    2
    28   109   112    1
    29   109   110    1
    30    60    58   ar
    31    61    59   ar
    32   119   118    2
    33    93    90   am
    34    90    89    1
    35    80    81    1
    36    80    79    1
    37   116   110   am
    38   116   117    1
    39   110   111    2
    40    81    88   am
    41    81    82    2
    42    58    57   ar
    43   118   117    1
    44    59    57   ar
    45    88    89    1
    46    79    74   am
    47    89    92    1
    48   117   120    1
    49    57    56    1
    50   120   121    1
    51    74    73    1
    52    74    75    2
    53   121   122    1
    54   121   123    1
    55    56    53    1
    56    73    72    1
    57    73    76    1
    58    65    64    1
    59    65    66    1
    60    64    54   am
    61    54    53    1
    62    54    55    2
    63    53    52    1
    64    77    76    1
    65    67    66    2
    66    76    78    1
    67    66    68   am
    68    22    24   ar
    69    22    21   ar
    70    24    25   ar
    71    21    20    1
    72    21    23   ar
    73    20    17    1
    74    52    47   am
    75    25    23   ar
    76    25    27   ar
    77    68    69    1
    78    19    18    2
    79    23    26   ar
    80    27    29   ar
    81    71    70    2
    82    48    47    2
    83    18    17    1
    84    47    46    1
    85    26    28   ar
    86    29    28   ar
    87    17    16    1
    88    70    69    1
    89    16    11   am
    90    15    13    1
    91    51    49    1
    92    46    49    1
    93    46    45    1
    94     7     6    1
    95    11    10    1
    96    11    12    2
    97    10    13    1
    98    10     9    1
    99     4     3    2
   100    49    50    1
   101    13    14    1
   102    40    39    2
   103     9     3   am
   104     3     2    1
   105     6     8    1
   106     6     5    1
   107    44    42    1
   108    33    32    2
   109    39    38    1
   110     5     2    1
   111    38    41    1
   112    38    37    1
   113     2     1    1
   114    35    34    1
   115    32    37   am
   116    32    31    1
   117    41    42    1
   118    42    43    1
   119    31    34    1
   120    31    30    1
   121    34    36    1
