@<TRIPOS>MOLECULE
tmp/1ddoC01.pdb
 135 130 0 0 0
SMALL
GASTEIGER

@<TRIPOS>ATOM
      1  N        161.6970   53.1570   15.4240 N.3    49  ALA49      -0.1245
      2  CA       160.6320   52.4130   14.7950 C.3    49  ALA49       0.1562
      3  C        160.9470   50.9030   15.0040 C.2    49  ALA49       0.2260
      4  O        160.1060   50.1180   15.4150 O.2    49  ALA49      -0.2867
      5  CB       160.7200   52.8040   13.2740 C.3    49  ALA49       0.0290
      6  N        162.2710   48.6960   12.6410 N.3    51  LEU51      -0.1245
      7  CA       162.1600   47.8170   11.4870 C.3    51  LEU51       0.1561
      8  C        163.4880   47.3890   10.9680 C.2    51  LEU51       0.2260
      9  O        164.3650   48.2130   10.8530 O.2    51  LEU51      -0.2867
     10  CB       161.3930   48.5170   10.3860 C.3    51  LEU51       0.0270
     11  CG       161.4750   47.9210    8.9970 C.3    51  LEU51       0.0019
     12  CD1      160.9740   46.5830    9.1330 C.3    51  LEU51       0.0001
     13  CD2      160.5110   48.6750    8.1160 C.3    51  LEU51       0.0001
     14  N        165.7300   46.9830    8.1130 N.3    53  GLN53      -0.1231
     15  CA       165.8510   47.3290    6.7030 C.3    53  GLN53       0.1683
     16  C        166.9840   48.3280    6.5880 C.2    53  GLN53       0.2434
     17  O        166.8530   49.4200    7.1130 O.2    53  GLN53      -0.2733
     18  CB       164.5710   47.9430    6.1700 C.3    53  GLN53       0.0380
     19  CG       164.7390   48.5360    4.7680 C.3    53  GLN53       0.0905
     20  CD       163.4120   48.5430    4.0220 C.2    53  GLN53       0.2608
     21  OE1      162.6910   47.5650    4.1070 O.2    53  GLN53      -0.2717
     22  NE2      163.0840   49.6390    3.4050 N.am   53  GLN53      -0.0878
     23  N        168.0680   47.9420    5.9310 N.am   54  PRO54      -0.2718
     24  CA       169.2330   48.7710    5.6880 C.3    54  PRO54       0.1535
     25  C        168.8730   49.8280    4.6800 C.2    54  PRO54       0.2599
     26  O        167.8180   49.7540    4.0720 O.2    54  PRO54      -0.2715
     27  CB       170.1680   47.8210    4.9400 C.3    54  PRO54       0.0310
     28  CG       169.8130   46.5280    5.4230 C.3    54  PRO54       0.0237
     29  CD       168.3470   46.5290    5.6410 C.3    54  PRO54       0.0939
     30  N        169.7950   50.8020    4.5300 N.am   55  TYR55      -0.1960
     31  CA       169.5680   51.8580    3.5800 C.3    55  TYR55       0.1771
     32  C        169.5890   51.3040    2.1550 C.2    55  TYR55       0.2620
     33  O        170.3560   50.4000    1.8140 O.2    55  TYR55      -0.2715
     34  CB       170.5900   52.9610    3.6500 C.3    55  TYR55       0.0574
     35  CG       170.7390   53.7630    4.9450 C.ar   55  TYR55      -0.0198
     36  CD1      171.5890   53.3470    5.9540 C.ar   55  TYR55      -0.0009
     37  CD2      170.1760   55.0330    5.0910 C.ar   55  TYR55      -0.0009
     38  CE1      171.8250   54.1380    7.0820 C.ar   55  TYR55       0.0417
     39  CE2      170.4110   55.8330    6.2350 C.ar   55  TYR55       0.0417
     40  CZ       171.2540   55.3710    7.2390 C.ar   55  TYR55       0.1957
     41  OH       171.5610   56.0540    8.4100 O.3    55  TYR55      -0.2866
     42  N        168.7450   51.9060    1.3290 N.am   56  THR56      -0.1951
     43  CA       168.5500   51.5430   -0.0780 C.3    56  THR56       0.1897
     44  C        169.8860   51.3480   -0.8480 C.2    56  THR56       0.2313
     45  O        170.1640   50.3400   -1.5750 O.2    56  THR56      -0.2863
     46  CB       167.6900   52.6950   -0.8020 C.3    56  THR56       0.1794
     47  OG1      166.3780   52.8770   -0.2170 O.3    56  THR56      -0.2208
     48  CG2      167.6280   52.5150   -2.3560 C.3    56  THR56       0.0378
     49  N        156.8550   52.1890    3.4460 N.3   215  ILE215     -0.1231
     50  CA       157.9590   53.1000    3.5160 C.3   215  ILE215      0.1692
     51  C        158.1030   53.7100    2.1350 C.2   215  ILE215      0.2593
     52  O        158.4150   53.0680    1.1380 O.2   215  ILE215     -0.2718
     53  CB       159.2270   52.3440    3.9080 C.3   215  ILE215      0.0266
     54  CG1      159.2490   52.0750    5.3990 C.3   215  ILE215      0.0019
     55  CG2      160.4430   53.1050    3.5890 C.3   215  ILE215      0.0020
     56  CD1      160.4640   51.2380    5.7490 C.3   215  ILE215      0.0001
     57  N        157.7980   54.9970    2.0950 N.am  216  THR216     -0.1939
     58  CA       157.8490   55.8240    0.9180 C.3   216  THR216      0.2028
     59  C        159.2480   56.3620    0.7180 C.2   216  THR216      0.2642
     60  O        160.0000   56.5290    1.6670 O.2   216  THR216     -0.2714
     61  CB       156.9730   56.9850    1.2220 C.3   216  THR216      0.1808
     62  OG1      155.6800   56.7030    0.6910 O.3   216  THR216     -0.2208
     63  CG2      157.5300   58.1630    0.7230 C.3   216  THR216      0.0379
     64  N        159.6630   56.5530   -0.5510 N.am  217  HIS217     -0.1973
     65  CA       161.0000   57.1000   -0.9000 C.3   217  HIS217      0.1656
     66  C        161.0320   58.2320   -1.9490 C.2   217  HIS217      0.2291
     67  O        160.6830   58.0700   -3.1030 O.2   217  HIS217     -0.2864
     68  CB       161.9840   55.9710   -1.3860 C.3   217  HIS217      0.0771
     69  CG       162.2560   54.8930   -0.3990 C.ar  217  HIS217      0.0820
     70  ND1      161.5240   53.7220   -0.3450 N.ar  217  HIS217     -0.2267
     71  CD2      163.1930   54.8020    0.5860 C.ar  217  HIS217      0.1154
     72  CE1      161.9830   52.9550    0.6180 C.ar  217  HIS217      0.1986
     73  NE2      162.9980   53.5850    1.2100 N.ar  217  HIS217     -0.2212
     74  N        167.0410   60.6850    2.2570 N.3   223  ILE223     -0.1231
     75  CA       166.3590   59.5400    2.8450 C.3   223  ILE223      0.1692
     76  C        165.6450   59.9090    4.1190 C.2   223  ILE223      0.2592
     77  O        166.0460   60.8280    4.8180 O.2   223  ILE223     -0.2718
     78  CB       167.3430   58.3850    3.1640 C.3   223  ILE223      0.0266
     79  CG1      166.6260   57.0420    3.0870 C.3   223  ILE223      0.0019
     80  CG2      168.1280   58.7020    4.4310 C.3   223  ILE223      0.0020
     81  CD1      167.5800   55.8520    3.0610 C.3   223  ILE223      0.0001
     82  N        164.5790   59.1530    4.4090 N.am  224  TYR224     -0.1976
     83  CA       163.7410   59.3490    5.5900 C.3   224  TYR224      0.1639
     84  C        163.1560   60.7520    5.6780 C.2   224  TYR224      0.2290
     85  O        163.1070   61.2730    6.7760 O.2   224  TYR224     -0.2864
     86  CB       164.5190   59.1090    6.8890 C.3   224  TYR224      0.0560
     87  CG       165.4140   57.8780    6.8980 C.ar  224  TYR224     -0.0198
     88  CD1      166.1580   57.5460    5.7690 C.ar  224  TYR224     -0.0009
     89  CD2      165.4940   57.0920    8.0550 C.ar  224  TYR224     -0.0009
     90  CE1      166.9860   56.4210    5.7890 C.ar  224  TYR224      0.0417
     91  CE2      166.3230   55.9660    8.0740 C.ar  224  TYR224      0.0417
     92  CZ       167.0690   55.6320    6.9400 C.ar  224  TYR224      0.1957
     93  OH       167.8780   54.5380    6.9540 O.3   224  TYR224     -0.2866
     94  N        156.3700   57.6200    6.1590 N.3   228  TYR228     -0.1241
     95  CA       156.4690   56.1850    6.3450 C.3   228  TYR228      0.1605
     96  C        155.6320   55.7580    7.5370 C.2   228  TYR228      0.2264
     97  O        155.4310   56.5380    8.4690 O.2   228  TYR228     -0.2867
     98  CB       157.8730   55.6920    6.4960 C.3   228  TYR228      0.0534
     99  CG       158.6120   56.1730    7.7090 C.ar  228  TYR228     -0.0201
    100  CD1      158.5330   55.4990    8.8800 C.ar  228  TYR228     -0.0009
    101  CD2      159.5110   57.2150    7.6420 C.ar  228  TYR228     -0.0009
    102  CE1      159.2940   55.8750    9.9630 C.ar  228  TYR228      0.0417
    103  CE2      160.2600   57.5910    8.7150 C.ar  228  TYR228      0.0417
    104  CZ       160.1480   56.9150    9.8660 C.ar  228  TYR228      0.1957
    105  OH       160.8950   57.2850   10.9620 O.3   228  TYR228     -0.2866
    106  N        154.9700   52.4410   10.2420 N.3   230  ILE230     -0.1245
    107  CA       155.4500   51.1350   10.6640 C.3   230  ILE230      0.1561
    108  C        154.7730   50.5880   11.8950 C.2   230  ILE230      0.2260
    109  O        154.9530   51.0660   13.0070 O.2   230  ILE230     -0.2867
    110  CB       156.9040   51.1970   10.9170 C.3   230  ILE230      0.0252
    111  CG1      157.5810   51.5760    9.6260 C.3   230  ILE230      0.0019
    112  CG2      157.3740   49.8690   11.4000 C.3   230  ILE230      0.0019
    113  CD1      158.9740   51.9240    9.8440 C.3   230  ILE230      0.0001
    114  N        169.6690   60.3050   14.9810 N.3   283  ARG283     -0.1245
    115  CA       170.3180   59.1160   14.4400 C.3   283  ARG283      0.1563
    116  C        171.7960   59.4300   14.4280 C.2   283  ARG283      0.2260
    117  O        172.2150   60.4790   13.9120 O.2   283  ARG283     -0.2867
    118  CB       169.8430   58.7920   13.0180 C.3   283  ARG283      0.0307
    119  CG       168.3250   58.6510   12.8650 C.3   283  ARG283      0.0489
    120  CD       167.9980   58.5720   11.4150 C.3   283  ARG283      0.2205
    121  NE       166.5870   58.3690   11.1030 N.pl3 283  ARG283     -0.0865
    122  CZ       165.6870   59.3380   11.0350 C.cat 283  ARG283      0.5346
    123  NH1      166.0140   60.5930   11.3160 N.pl3 283  ARG283      0.1354
    124  NH2      164.4400   59.0380   10.6980 N.pl3 283  ARG283      0.1354
    125  N        170.7380   55.4220   11.0130 N.3   313  GLY313     -0.1225
    126  CA       169.3560   55.0040   11.1540 C.3   313  GLY313      0.1811
    127  C        169.1950   53.4940   10.9970 C.2   313  GLY313      0.2280
    128  O        168.1360   53.0520   10.5710 O.2   313  GLY313     -0.2866
    129  N        168.8120   47.3920   13.0910 N.3   317  THR317     -0.1218
    130  CA       169.0390   46.5710   11.9310 C.3   317  THR317      0.1862
    131  C        170.3660   45.8930   11.8520 C.2   317  THR317      0.2287
    132  O        170.4600   44.8250   11.2670 O.2   317  THR317     -0.2866
    133  CB       168.9400   47.4000   10.6580 C.3   317  THR317      0.1770
    134  OG1      167.5960   47.8880   10.5470 O.3   317  THR317     -0.2211
    135  CG2      169.2200   46.5770    9.4290 C.3   317  THR317      0.0375
@<TRIPOS>BOND
     1    67    66    2
     2    48    46    1
     3    66    65    1
     4    45    44    2
     5    68    65    1
     6    68    69    1
     7    65    64    1
     8    44    43    1
     9    46    47    1
    10    46    43    1
    11    64    59   am
    12    69    70   ar
    13    69    71   ar
    14    70    72   ar
    15    43    42    1
    16    71    73   ar
    17    72    73   ar
    18    62    61    1
    19    59    58    1
    20    59    60    2
    21    63    61    1
    22    58    61    1
    23    58    57    1
    24    52    51    2
    25    42    32   am
    26    33    32    2
    27    57    51   am
    28    51    50    1
    29    32    31    1
    30    74    75    1
    31    75    78    1
    32    75    76    1
    33    81    79    1
    34    79    78    1
    35    78    80    1
    36    22    20   am
    37    49    50    1
    38    50    53    1
    39    31    34    1
    40    31    30    1
    41    55    53    1
    42    34    35    1
    43    53    54    1
    44    20    21    2
    45    20    19    1
    46    26    25    2
    47    76    82   am
    48    76    77    2
    49    82    83    1
    50    30    25   am
    51    25    24    1
    52    19    18    1
    53    27    28    1
    54    27    24    1
    55    35    37   ar
    56    35    36   ar
    57    37    39   ar
    58    54    56    1
    59    28    29    1
    60    83    84    1
    61    83    86    1
    62    29    23    1
    63    84    85    2
    64    24    23    1
    65    88    90   ar
    66    88    87   ar
    67    90    92   ar
    68    23    16   am
    69    36    38   ar
    70    94    95    1
    71    18    15    1
    72    39    40   ar
    73    95    98    1
    74    95    96    1
    75    98    99    1
    76    16    15    1
    77    16    17    2
    78    15    14    1
    79    86    87    1
    80    87    89   ar
    81    92    93    1
    82    92    91   ar
    83    38    40   ar
    84    40    41    1
    85    96    97    2
    86   101    99   ar
    87   101   103   ar
    88    99   100   ar
    89    89    91   ar
    90    13    11    1
    91   103   104   ar
    92   100   102   ar
    93    11    12    1
    94    11    10    1
    95   135   133    1
    96   111   113    1
    97   111   110    1
    98   104   102   ar
    99   104   105    1
   100   106   107    1
   101    10     7    1
   102   134   133    1
   103   128   127    2
   104   133   130    1
   105   107   110    1
   106   107   108    1
   107   124   122    1
   108     9     8    2
   109   110   112    1
   110     8     7    1
   111   127   126    1
   112   125   126    1
   113   122   121    2
   114   122   123    1
   115   121   120    1
   116   132   131    2
   117   120   119    1
   118     7     6    1
   119   131   130    1
   120   108   109    2
   121   130   129    1
   122   119   118    1
   123   118   115    1
   124     5     2    1
   125   117   116    2
   126   116   115    1
   127   115   114    1
   128     2     3    1
   129     2     1    1
   130     3     4    2
