@<TRIPOS>MOLECULE
tmp/1ddvA00.pdb
 107 107 0 0 0
SMALL
GASTEIGER

@<TRIPOS>ATOM
      1  N         15.4530    9.8320    2.7020 N.3     7  HIS7       -0.1241
      2  CA        15.5780    9.6970    1.2580 C.3     7  HIS7        0.1621
      3  C         16.8910   10.4000    0.9380 C.2     7  HIS7        0.2264
      4  O         17.1420   11.5050    1.4310 O.2     7  HIS7       -0.2867
      5  CB        14.4300   10.3910    0.5250 C.3     7  HIS7        0.0745
      6  CG        13.1470    9.6180    0.5560 C.ar    7  HIS7        0.0817
      7  ND1       12.5220    9.2740    1.7300 N.ar    7  HIS7       -0.2268
      8  CD2       12.3730    9.1380   -0.4430 C.ar    7  HIS7        0.1154
      9  CE1       11.4080    8.6130    1.4560 C.ar    7  HIS7        0.1986
     10  NE2       11.2940    8.5180    0.1400 N.ar    7  HIS7       -0.2212
     11  N         19.8230   12.1080   -1.6290 N.3     9  PHE9       -0.1241
     12  CA        20.0500   12.8950   -2.8350 C.3     9  PHE9        0.1605
     13  C         21.4970   13.3680   -2.8640 C.2     9  PHE9        0.2264
     14  O         22.1770   13.4010   -1.8260 O.2     9  PHE9       -0.2867
     15  CB        19.1860   14.1560   -2.8690 C.3     9  PHE9        0.0534
     16  CG        17.7270   13.9000   -2.7170 C.ar    9  PHE9       -0.0203
     17  CD1       17.1630   13.7720   -1.4520 C.ar    9  PHE9       -0.0042
     18  CD2       16.9100   13.8000   -3.8380 C.ar    9  PHE9       -0.0042
     19  CE1       15.7960   13.5540   -1.3070 C.ar    9  PHE9       -0.0003
     20  CE2       15.5450   13.5820   -3.7060 C.ar    9  PHE9       -0.0003
     21  CZ        14.9880   13.4600   -2.4360 C.ar    9  PHE9       -0.0000
     22  N         23.4050   22.6160   -8.3720 N.3    17  LYS17      -0.1245
     23  CA        22.2700   23.3980   -7.9000 C.3    17  LYS17       0.1561
     24  C         21.0560   22.5080   -7.6460 C.2    17  LYS17       0.2260
     25  O         20.3600   22.6660   -6.6420 O.2    17  LYS17      -0.2867
     26  CB        21.8950   24.4840   -8.9110 C.3    17  LYS17       0.0271
     27  CG        22.7040   25.7670   -8.7750 C.3    17  LYS17       0.0035
     28  CD        22.1000   26.9030   -9.6070 C.3    17  LYS17       0.0206
     29  CE        22.8330   28.2170   -9.3330 C.3    17  LYS17       0.1093
     30  NZ        22.1670   29.4090   -9.9380 N.3    17  LYS17      -0.1314
     31  N         18.9610   18.8110   -7.0830 N.3    19  TRP19      -0.1241
     32  CA        19.1170   17.5740   -6.3340 C.3    19  TRP19       0.1605
     33  C         18.7070   16.3600   -7.1540 C.2    19  TRP19       0.2264
     34  O         17.6740   16.3610   -7.8150 O.2    19  TRP19      -0.2867
     35  CB        18.3030   17.6240   -5.0400 C.3    19  TRP19       0.0550
     36  CG        18.8010   18.6470   -4.0860 C.ar   19  TRP19       0.0003
     37  CD1       18.2810   19.8840   -3.8730 C.ar   19  TRP19       0.0946
     38  CD2       19.9430   18.5390   -3.2280 C.ar   19  TRP19       0.0152
     39  NE1       19.0220   20.5580   -2.9350 N.ar   19  TRP19      -0.2442
     40  CE2       20.0500   19.7530   -2.5220 C.ar   19  TRP19       0.0810
     41  CE3       20.8860   17.5280   -2.9890 C.ar   19  TRP19       0.0012
     42  CZ2       21.0690   19.9970   -1.5910 C.ar   19  TRP19       0.0191
     43  CZ3       21.9050   17.7700   -2.0610 C.ar   19  TRP19       0.0001
     44  CH2       21.9850   18.9950   -1.3740 C.ar   19  TRP19       0.0015
     45  N         18.9460   22.7630    6.0340 N.3    65  THR65      -0.1203
     46  CA        18.3710   23.6690    5.0490 C.3    65  THR65       0.1994
     47  C         16.9100   24.0460    5.2850 C.2    65  THR65       0.2619
     48  O         16.5240   25.1970    5.0640 O.2    65  THR65      -0.2717
     49  CB        18.5090   23.0940    3.6300 C.3    65  THR65       0.1784
     50  OG1       19.8840   22.7880    3.3790 O.3    65  THR65      -0.2211
     51  CG2       18.0310   24.1110    2.5990 C.3    65  THR65       0.0376
     52  N         16.1000   23.0910    5.7250 N.am   66  SER66      -0.1937
     53  CA        14.6930   23.3580    5.9770 C.3    66  SER66       0.2055
     54  C         14.1710   22.5280    7.1370 C.2    66  SER66       0.2643
     55  O         14.9370   21.9710    7.9110 O.2    66  SER66      -0.2714
     56  CB        13.8600   23.0660    4.7220 C.3    66  SER66       0.2130
     57  OG        13.8840   21.6940    4.3980 O.3    66  SER66      -0.2179
     58  N         12.8540   22.4550    7.2610 N.am   67  GLN67      -0.1963
     59  CA        12.2430   21.6990    8.3410 C.3    67  GLN67       0.1733
     60  C         12.5710   20.2100    8.2820 C.2    67  GLN67       0.2616
     61  O         12.7280   19.5770    9.3200 O.2    67  GLN67      -0.2715
     62  CB        10.7200   21.8930    8.3230 C.3    67  GLN67       0.0408
     63  CG         9.9520   20.9900    9.2850 C.3    67  GLN67       0.0908
     64  CD         8.4470   21.1740    9.2240 C.2    67  GLN67       0.2608
     65  OE1        7.8760   21.2090    8.1350 O.2    67  GLN67      -0.2717
     66  NE2        7.6180   21.2990   10.2610 N.am   67  GLN67      -0.0878
     67  N         12.6570   19.6390    7.0720 N.am   68  LYS68      -0.1963
     68  CA        12.8970   18.2060    6.9250 C.3    68  LYS68       0.1728
     69  C         14.0110   17.8390    5.9350 C.2    68  LYS68       0.2616
     70  O         14.0610   16.7190    5.4420 O.2    68  LYS68      -0.2715
     71  CB        11.5950   17.5150    6.5230 C.3    68  LYS68       0.0311
     72  CG        10.4680   17.6980    7.5270 C.3    68  LYS68       0.0038
     73  CD         9.2810   16.8120    7.1940 C.3    68  LYS68       0.0206
     74  CE         8.1520   17.0020    8.1950 C.3    68  LYS68       0.1093
     75  NZ         6.9820   16.1360    7.8850 N.3    68  LYS68      -0.1314
     76  N         14.9230   18.7600    5.6520 N.am   69  PHE69      -0.1974
     77  CA        16.0310   18.5100    4.7020 C.3    69  PHE69       0.1639
     78  C         17.3500   19.0600    5.2480 C.2    69  PHE69       0.2290
     79  O         17.4180   20.2200    5.6500 O.2    69  PHE69      -0.2864
     80  CB        15.7480   19.1310    3.3350 C.3    69  PHE69       0.0560
     81  CG        16.7020   18.6940    2.2450 C.ar   69  PHE69      -0.0200
     82  CD1       16.6270   17.4120    1.7080 C.ar   69  PHE69      -0.0042
     83  CD2       17.6440   19.5810    1.7280 C.ar   69  PHE69      -0.0042
     84  CE1       17.4730   17.0100    0.6650 C.ar   69  PHE69      -0.0003
     85  CE2       18.5020   19.1930    0.6810 C.ar   69  PHE69      -0.0003
     86  CZ        18.4110   17.9010    0.1510 C.ar   69  PHE69      -0.0000
     87  N         16.4100   13.8390    3.1120 N.3    84  GLY84      -0.1210
     88  CA        15.0490   14.2730    3.3860 C.3    84  GLY84       0.1956
     89  C         14.4860   13.3740    4.4790 C.2    84  GLY84       0.2612
     90  O         14.5220   12.1470    4.3480 O.2    84  GLY84      -0.2717
     91  N         13.9760   13.9670    5.5560 N.am   85  PHE85      -0.1962
     92  CA        13.4480   13.1880    6.6690 C.3    85  PHE85       0.1771
     93  C         11.9310   13.1990    6.7490 C.2    85  PHE85       0.2620
     94  O         11.2680   14.0350    6.1350 O.2    85  PHE85      -0.2715
     95  CB        14.0120   13.6900    8.0090 C.3    85  PHE85       0.0574
     96  CG        15.5000   13.5540    8.1380 C.ar   85  PHE85      -0.0200
     97  CD1       16.3500   14.4640    7.5200 C.ar   85  PHE85      -0.0042
     98  CD2       16.0540   12.4900    8.8450 C.ar   85  PHE85      -0.0042
     99  CE1       17.7330   14.3170    7.5960 C.ar   85  PHE85      -0.0003
    100  CE2       17.4370   12.3300    8.9300 C.ar   85  PHE85      -0.0003
    101  CZ        18.2750   13.2430    8.3040 C.ar   85  PHE85      -0.0000
    102  N         11.3970   12.2750    7.5370 N.am   86  SER86      -0.1950
    103  CA         9.9570   12.1500    7.7360 C.3    86  SER86       0.1924
    104  C          9.4340   13.2190    8.6910 C.2    86  SER86       0.2314
    105  O          8.2340   13.4910    8.7220 O.2    86  SER86      -0.2863
    106  CB         9.6160   10.7600    8.2850 C.3    86  SER86       0.2116
    107  OG        10.3050   10.5030    9.5000 O.3    86  SER86      -0.2180
@<TRIPOS>BOND
     1    30    29    1
     2    28    29    1
     3    28    27    1
     4    26    27    1
     5    26    23    1
     6    22    23    1
     7    23    24    1
     8    34    33    2
     9    24    25    2
    10    33    32    1
    11    31    32    1
    12    32    35    1
    13    35    36    1
    14    36    37   ar
    15    36    38   ar
    16    37    39   ar
    17    18    20   ar
    18    18    16   ar
    19    20    21   ar
    20    38    41   ar
    21    38    40   ar
    22    41    43   ar
    23    39    40   ar
    24    15    12    1
    25    15    16    1
    26    13    12    1
    27    13    14    2
    28    12    11    1
    29    16    17   ar
    30    40    42   ar
    31    21    19   ar
    32    43    44   ar
    33    42    44   ar
    34    17    19   ar
    35     8    10   ar
    36     8     6   ar
    37    10     9   ar
    38    86    84   ar
    39    86    85   ar
    40     5     6    1
    41     5     2    1
    42     6     7   ar
    43    84    82   ar
    44    85    83   ar
    45     3     2    1
    46     3     4    2
    47     2     1    1
    48     9     7   ar
    49    82    81   ar
    50    83    81   ar
    51    81    80    1
    52    51    49    1
    53    87    88    1
    54    80    77    1
    55    50    49    1
    56    88    89    1
    57    49    46    1
    58    90    89    2
    59    57    56    1
    60    89    91   am
    61    77    78    1
    62    77    76    1
    63    56    53    1
    64    46    47    1
    65    46    45    1
    66    48    47    2
    67    78    79    2
    68    47    52   am
    69    70    69    2
    70    91    92    1
    71    76    69   am
    72    52    53    1
    73    69    68    1
    74    53    54    1
    75    94    93    2
    76    71    68    1
    77    71    72    1
    78    92    93    1
    79    92    95    1
    80    93   102   am
    81    68    67    1
    82    67    60   am
    83    54    58   am
    84    54    55    2
    85    73    72    1
    86    73    74    1
    87    58    59    1
    88    97    99   ar
    89    97    96   ar
    90   102   103    1
    91    99   101   ar
    92   103   106    1
    93   103   104    1
    94    75    74    1
    95    95    96    1
    96    65    64    2
    97    96    98   ar
    98    60    59    1
    99    60    61    2
   100   106   107    1
   101   101   100   ar
   102    62    59    1
   103    62    63    1
   104   104   105    2
   105    98   100   ar
   106    64    63    1
   107    64    66   am
