@<TRIPOS>MOLECULE
tmp/1ddxA04.pdb
 247 239 0 0 0
SMALL
GASTEIGER

@<TRIPOS>ATOM
      1  N         33.7280   14.7630   16.7060 N.3    89  ARG89      -0.1245
      2  CA        33.6920   15.2720   15.3410 C.3    89  ARG89       0.1563
      3  C         35.0540   15.0190   14.7050 C.2    89  ARG89       0.2260
      4  O         35.2700   13.9720   14.0900 O.2    89  ARG89      -0.2867
      5  CB        33.3690   16.7650   15.3480 C.3    89  ARG89       0.0307
      6  CG        32.1740   17.1110   16.2330 C.3    89  ARG89       0.0489
      7  CD        30.9230   17.4450   15.3980 C.3    89  ARG89       0.2205
      8  NE        29.7730   16.5760   15.6770 N.pl3  89  ARG89      -0.0865
      9  CZ        28.6890   16.9390   16.3670 C.cat  89  ARG89       0.5346
     10  NH1       28.5750   18.1650   16.8660 N.pl3  89  ARG89       0.1354
     11  NH2       27.7070   16.0680   16.5560 N.pl3  89  ARG89       0.1354
     12  N         28.9770   37.3290   11.0380 N.3   174  PHE174     -0.1227
     13  CA        30.0940   36.4310   11.2900 C.3   174  PHE174      0.1736
     14  C         30.4240   35.5550   10.0800 C.2   174  PHE174      0.2596
     15  O         31.4840   35.6990    9.4890 O.2   174  PHE174     -0.2718
     16  CB        29.7820   35.5550   12.5040 C.3   174  PHE174      0.0547
     17  CG        30.7410   34.4130   12.6980 C.ar  174  PHE174     -0.0202
     18  CD1       32.0730   34.6480   13.0100 C.ar  174  PHE174     -0.0042
     19  CD2       30.2950   33.0970   12.6200 C.ar  174  PHE174     -0.0042
     20  CE1       32.9430   33.5820   13.2490 C.ar  174  PHE174     -0.0003
     21  CE2       31.1600   32.0260   12.8590 C.ar  174  PHE174     -0.0003
     22  CZ        32.4820   32.2650   13.1740 C.ar  174  PHE174     -0.0000
     23  N         29.5270   34.6540    9.7010 N.am  175  THR175     -0.1953
     24  CA        29.7950   33.7860    8.5600 C.3   175  THR175      0.1897
     25  C         30.2610   34.5330    7.3140 C.2   175  THR175      0.2313
     26  O         30.8160   33.9270    6.3990 O.2   175  THR175     -0.2863
     27  CB        28.5490   32.9760    8.1520 C.3   175  THR175      0.1794
     28  OG1       27.5130   33.8770    7.7490 O.3   175  THR175     -0.2208
     29  CG2       28.0550   32.1050    9.3160 C.3   175  THR175      0.0378
     30  N         34.2850   33.9950    6.2320 N.3   178  PHE178     -0.1227
     31  CA        34.6640   32.8070    5.4930 C.3   178  PHE178      0.1736
     32  C         33.9540   32.7460    4.1540 C.2   178  PHE178      0.2595
     33  O         34.5990   32.7390    3.1020 O.2   178  PHE178     -0.2718
     34  CB        34.4040   31.4980    6.2610 C.3   178  PHE178      0.0547
     35  CG        33.6000   31.6480    7.5020 C.ar  178  PHE178     -0.0202
     36  CD1       34.0290   32.4620    8.5380 C.ar  178  PHE178     -0.0042
     37  CD2       32.4290   30.9270    7.6570 C.ar  178  PHE178     -0.0042
     38  CE1       33.2980   32.5540    9.7180 C.ar  178  PHE178     -0.0003
     39  CE2       31.6930   31.0100    8.8300 C.ar  178  PHE178     -0.0003
     40  CZ        32.1270   31.8250    9.8640 C.ar  178  PHE178     -0.0000
     41  N         32.6300   32.6850    4.1730 N.am  179  PHE179     -0.1976
     42  CA        31.9030   32.6360    2.9130 C.3   179  PHE179      0.1639
     43  C         32.0320   34.0190    2.3110 C.2   179  PHE179      0.2290
     44  O         31.7550   35.0180    2.9800 O.2   179  PHE179     -0.2864
     45  CB        30.4260   32.3120    3.1420 C.3   179  PHE179      0.0560
     46  CG        30.1920   31.1660    4.0850 C.ar  179  PHE179     -0.0200
     47  CD1       30.6820   29.8920    3.7900 C.ar  179  PHE179     -0.0042
     48  CD2       29.4880   31.3630    5.2730 C.ar  179  PHE179     -0.0042
     49  CE1       30.4770   28.8310    4.6630 C.ar  179  PHE179     -0.0003
     50  CE2       29.2760   30.3090    6.1570 C.ar  179  PHE179     -0.0003
     51  CZ        29.7730   29.0380    5.8480 C.ar  179  PHE179     -0.0000
     52  N         38.7670   31.1630    6.9930 N.3   196  GLY196     -0.1210
     53  CA        38.4970   30.9590    8.3970 C.3   196  GLY196      0.1956
     54  C         38.3320   32.2340    9.1920 C.2   196  GLY196      0.2611
     55  O         38.3900   33.3480    8.6540 O.2   196  GLY196     -0.2717
     56  N         38.1270   32.0610   10.4900 N.am  197  VAL197     -0.1979
     57  CA        37.9400   33.1860   11.3930 C.3   197  VAL197      0.1595
     58  C         39.1960   34.0480   11.4490 C.2   197  VAL197      0.2287
     59  O         40.1270   33.7610   12.2100 O.2   197  VAL197     -0.2864
     60  CB        37.6010   32.7070   12.8340 C.3   197  VAL197      0.0276
     61  CG1       36.7440   33.7490   13.5200 C.3   197  VAL197      0.0022
     62  CG2       36.9050   31.3340   12.8070 C.3   197  VAL197      0.0022
     63  N         31.4520   32.7480   19.6370 N.3   313  VAL313     -0.1245
     64  CA        30.7450   31.8820   18.7040 C.3   313  VAL313      0.1561
     65  C         30.5390   30.5360   19.3860 C.2   313  VAL313      0.2260
     66  O         29.4200   30.1790   19.7270 O.2   313  VAL313     -0.2867
     67  CB        31.5250   31.6930   17.3920 C.3   313  VAL313      0.0252
     68  CG1       31.1150   30.3950   16.7150 C.3   313  VAL313      0.0019
     69  CG2       31.2610   32.8810   16.4630 C.3   313  VAL313      0.0019
     70  N         26.5960   31.7470   20.5550 N.3   317  TYR317     -0.1227
     71  CA        26.0750   31.3190   19.2560 C.3   317  TYR317      0.1736
     72  C         25.9270   29.7850   19.2330 C.2   317  TYR317      0.2595
     73  O         24.8930   29.2520   19.6510 O.2   317  TYR317     -0.2718
     74  CB        27.0420   31.8050   18.1700 C.3   317  TYR317      0.0548
     75  CG        26.6080   31.6200   16.7370 C.ar  317  TYR317     -0.0200
     76  CD1       26.2430   32.7200   15.9490 C.ar  317  TYR317     -0.0009
     77  CD2       26.6590   30.3600   16.1310 C.ar  317  TYR317     -0.0009
     78  CE1       25.9510   32.5650   14.5920 C.ar  317  TYR317      0.0417
     79  CE2       26.3700   30.1980   14.7750 C.ar  317  TYR317      0.0417
     80  CZ        26.0230   31.2960   14.0080 C.ar  317  TYR317      0.1957
     81  OH        25.8210   31.1130   12.6520 O.3   317  TYR317     -0.2866
     82  N         26.9570   29.0700   18.7960 N.am  318  VAL318     -0.1980
     83  CA        26.8920   27.6010   18.7530 C.3   318  VAL318      0.1595
     84  C         26.1690   26.9450   19.9370 C.2   318  VAL318      0.2287
     85  O         25.3880   26.0000   19.7660 O.2   318  VAL318     -0.2864
     86  CB        28.2920   26.9670   18.7020 C.3   318  VAL318      0.0276
     87  CG1       28.1600   25.4400   18.6000 C.3   318  VAL318      0.0022
     88  CG2       29.0740   27.5470   17.5460 C.3   318  VAL318      0.0022
     89  N         22.4590   27.5730   19.4930 N.3   321  LEU321     -0.1231
     90  CA        22.1080   26.8110   18.3110 C.3   321  LEU321      0.1693
     91  C         21.9350   25.3200   18.5910 C.2   321  LEU321      0.2592
     92  O         21.2270   24.6230   17.8750 O.2   321  LEU321     -0.2718
     93  CB        23.1820   27.0040   17.2390 C.3   321  LEU321      0.0284
     94  CG        22.6980   27.1900   15.8070 C.3   321  LEU321      0.0019
     95  CD1       21.4190   28.0280   15.8100 C.3   321  LEU321      0.0001
     96  CD2       23.7750   27.8730   14.9930 C.3   321  LEU321      0.0001
     97  N         22.5770   24.8290   19.6380 N.am  322  SER322     -0.1952
     98  CA        22.4850   23.4110   19.9530 C.3   322  SER322      0.1924
     99  C         21.4220   23.0760   20.9840 C.2   322  SER322      0.2314
    100  O         20.9430   21.9400   21.0590 O.2   322  SER322     -0.2863
    101  CB        23.8390   22.8940   20.4470 C.3   322  SER322      0.2116
    102  OG        23.8580   22.7910   21.8580 O.3   322  SER322     -0.2180
    103  N         21.7670   22.4030   23.7970 N.3   324  TYR324     -0.1241
    104  CA        22.2180   21.3570   24.7020 C.3   324  TYR324      0.1605
    105  C         22.1760   21.9470   26.0960 C.2   324  TYR324      0.2264
    106  O         22.1520   23.1670   26.2570 O.2   324  TYR324     -0.2867
    107  CB        23.6530   20.9360   24.3880 C.3   324  TYR324      0.0534
    108  CG        23.8250   20.2500   23.0610 C.ar  324  TYR324     -0.0201
    109  CD1       22.7270   19.8390   22.3150 C.ar  324  TYR324     -0.0009
    110  CD2       25.0900   20.0080   22.5480 C.ar  324  TYR324     -0.0009
    111  CE1       22.8920   19.2040   21.0950 C.ar  324  TYR324      0.0417
    112  CE2       25.2620   19.3750   21.3270 C.ar  324  TYR324      0.0417
    113  CZ        24.1620   18.9740   20.6110 C.ar  324  TYR324      0.1957
    114  OH        24.3310   18.3340   19.4140 O.3   324  TYR324     -0.2866
    115  N         28.8160   24.4650   26.4730 N.3   328  LEU328     -0.1245
    116  CA        29.9300   24.3400   25.5510 C.3   328  LEU328      0.1561
    117  C         31.0660   25.2590   25.9760 C.2   328  LEU328      0.2260
    118  O         30.8510   26.4370   26.2690 O.2   328  LEU328     -0.2867
    119  CB        29.4750   24.6780   24.1300 C.3   328  LEU328      0.0270
    120  CG        28.7080   23.5640   23.4070 C.3   328  LEU328      0.0019
    121  CD1       28.6800   23.8620   21.9270 C.3   328  LEU328      0.0001
    122  CD2       29.3510   22.2070   23.6630 C.3   328  LEU328      0.0001
    123  N         42.7980   25.0310    8.2040 N.3   344  ASN344     -0.1240
    124  CA        41.4550   24.9210    7.6520 C.3   344  ASN344      0.1653
    125  C         41.1970   25.4870    6.2590 C.2   344  ASN344      0.2266
    126  O         41.6870   26.5630    5.8960 O.2   344  ASN344     -0.2867
    127  CB        40.4530   25.5630    8.6170 C.3   344  ASN344      0.1155
    128  CG        39.0190   25.3230    8.2080 C.2   344  ASN344      0.2627
    129  OD1       38.3630   24.4160    8.7160 O.2   344  ASN344     -0.2716
    130  ND2       38.5260   26.1350    7.2880 N.am  344  ASN344     -0.0877
    131  N         37.8320   26.1790    3.7050 N.3   346  ILE346     -0.1245
    132  CA        36.3720   26.2510    3.6900 C.3   346  ILE346      0.1561
    133  C         35.6800   25.5080    2.5500 C.2   346  ILE346      0.2260
    134  O         35.9550   25.7440    1.3670 O.2   346  ILE346     -0.2867
    135  CB        35.9170   27.7200    3.7110 C.3   346  ILE346      0.0252
    136  CG1       35.6270   28.1400    5.1530 C.3   346  ILE346      0.0019
    137  CG2       34.6590   27.9000    2.8990 C.3   346  ILE346      0.0019
    138  CD1       36.5080   29.2100    5.6550 C.3   346  ILE346      0.0001
    139  N         29.4490   23.4880    3.4390 N.3   350  PHE350     -0.1241
    140  CA        29.3280   24.3450    4.6090 C.3   350  PHE350      0.1605
    141  C         28.7600   25.6980    4.1990 C.2   350  PHE350      0.2264
    142  O         27.9710   26.2860    4.9290 O.2   350  PHE350     -0.2867
    143  CB        30.6990   24.5230    5.2610 C.3   350  PHE350      0.0534
    144  CG        30.6590   25.1820    6.6110 C.ar  350  PHE350     -0.0203
    145  CD1       30.0590   24.5470    7.6940 C.ar  350  PHE350     -0.0042
    146  CD2       31.2630   26.4220    6.8130 C.ar  350  PHE350     -0.0042
    147  CE1       30.0650   25.1330    8.9700 C.ar  350  PHE350     -0.0003
    148  CE2       31.2710   27.0190    8.0780 C.ar  350  PHE350     -0.0003
    149  CZ        30.6740   26.3730    9.1600 C.ar  350  PHE350     -0.0000
    150  N         24.8130   25.0590    3.3130 N.3   353  LEU353     -0.1231
    151  CA        24.0740   24.8460    4.5580 C.3   353  LEU353      0.1693
    152  C         23.8300   26.1610    5.2610 C.2   353  LEU353      0.2592
    153  O         22.8910   26.2850    6.0280 O.2   353  LEU353     -0.2718
    154  CB        24.8390   23.9490    5.5340 C.3   353  LEU353      0.0284
    155  CG        25.7550   22.8400    5.0290 C.3   353  LEU353      0.0019
    156  CD1       26.4220   22.1920    6.2380 C.3   353  LEU353      0.0001
    157  CD2       24.9660   21.8050    4.2370 C.3   353  LEU353      0.0001
    158  N         24.6900   27.1370    5.0030 N.am  354  TYR354     -0.1976
    159  CA        24.5740   28.4350    5.6420 C.3   354  TYR354      0.1639
    160  C         23.3100   29.1490    5.2430 C.2   354  TYR354      0.2290
    161  O         22.6870   29.7750    6.0860 O.2   354  TYR354     -0.2864
    162  CB        25.7910   29.3100    5.3200 C.3   354  TYR354      0.0560
    163  CG        25.4420   30.7220    4.8740 C.ar  354  TYR354     -0.0198
    164  CD1       24.9070   31.6490    5.7760 C.ar  354  TYR354     -0.0009
    165  CD2       25.6180   31.1180    3.5460 C.ar  354  TYR354     -0.0009
    166  CE1       24.5520   32.9310    5.3690 C.ar  354  TYR354      0.0417
    167  CE2       25.2690   32.3940    3.1280 C.ar  354  TYR354      0.0417
    168  CZ        24.7340   33.3000    4.0430 C.ar  354  TYR354      0.1957
    169  OH        24.3780   34.5700    3.6300 O.3   354  TYR354     -0.2866
    170  N         20.5710   30.1950    5.4490 N.3   356  TRP356     -0.1241
    171  CA        19.5890   30.1370    6.5120 C.3   356  TRP356      0.1605
    172  C         18.5470   31.2200    6.4280 C.2   356  TRP356      0.2264
    173  O         18.1840   31.8010    7.4580 O.2   356  TRP356     -0.2867
    174  CB        20.3050   30.3160    7.8320 C.3   356  TRP356      0.0550
    175  CG        21.1210   29.1690    8.2620 C.ar  356  TRP356      0.0003
    176  CD1       21.1830   27.9380    7.6780 C.ar  356  TRP356      0.0946
    177  CD2       21.8740   29.0850    9.4710 C.ar  356  TRP356      0.0152
    178  NE1       21.9170   27.0880    8.4640 N.ar  356  TRP356     -0.2442
    179  CE2       22.3520   27.7650    9.5720 C.ar  356  TRP356      0.0810
    180  CE3       22.1770   29.9970   10.4870 C.ar  356  TRP356      0.0012
    181  CZ2       23.1160   27.3280   10.6460 C.ar  356  TRP356      0.0191
    182  CZ3       22.9440   29.5580   11.5680 C.ar  356  TRP356      0.0001
    183  CH2       23.4020   28.2360   11.6330 C.ar  356  TRP356      0.0015
    184  N         16.9460   23.2660   13.5970 N.3   487  PHE487     -0.1241
    185  CA        17.5680   22.5110   12.5140 C.3   487  PHE487      0.1605
    186  C         17.2110   21.0510   12.6030 C.2   487  PHE487      0.2264
    187  O         16.8130   20.5680   13.6620 O.2   487  PHE487     -0.2867
    188  CB        19.0920   22.5900   12.5820 C.3   487  PHE487      0.0534
    189  CG        19.6430   23.9660   12.3890 C.ar  487  PHE487     -0.0203
    190  CD1       19.3630   24.6910   11.2310 C.ar  487  PHE487     -0.0042
    191  CD2       20.4310   24.5470   13.3750 C.ar  487  PHE487     -0.0042
    192  CE1       19.8570   25.9800   11.0630 C.ar  487  PHE487     -0.0003
    193  CE2       20.9310   25.8360   13.2160 C.ar  487  PHE487     -0.0003
    194  CZ        20.6420   26.5520   12.0630 C.ar  487  PHE487     -0.0000
    195  N         21.5130   19.0710    8.8230 N.3   491  MET491     -0.1230
    196  CA        22.2230   20.3430    8.9420 C.3   491  MET491      0.1702
    197  C         23.1360   20.3810   10.1540 C.2   491  MET491      0.2592
    198  O         24.2420   20.9160   10.0840 O.2   491  MET491     -0.2718
    199  CB        21.2490   21.5090    9.0280 C.3   491  MET491      0.0401
    200  CG        21.8920   22.8010    9.4790 C.3   491  MET491      0.0596
    201  SD        21.6060   24.1710    8.3430 S.3   491  MET491     -0.1393
    202  CE        21.8520   23.3880    6.7480 C.3   491  MET491      0.0692
    203  N         22.6910   19.8210   11.2710 N.am  492  VAL492     -0.1980
    204  CA        23.5410   19.8390   12.4520 C.3   492  VAL492      0.1595
    205  C         24.7960   18.9990   12.2480 C.2   492  VAL492      0.2287
    206  O         25.9110   19.5020   12.3690 O.2   492  VAL492     -0.2864
    207  CB        22.7920   19.3330   13.6890 C.3   492  VAL492      0.0276
    208  CG1       23.7490   18.6380   14.6440 C.3   492  VAL492      0.0022
    209  CG2       22.1220   20.5090   14.3810 C.3   492  VAL492      0.0022
    210  N         27.4120   20.8120    9.7160 N.3   495  GLY495     -0.1210
    211  CA        28.0710   22.0180   10.1710 C.3   495  GLY495      0.1956
    212  C         28.8270   21.8420   11.4650 C.2   495  GLY495      0.2611
    213  O         29.7060   22.6380   11.7880 O.2   495  GLY495     -0.2717
    214  N         28.4820   20.8060   12.2170 N.am  496  ALA496     -0.1979
    215  CA        29.1600   20.5620   13.4820 C.3   496  ALA496      0.1597
    216  C         30.6510   20.3720   13.2240 C.2   496  ALA496      0.2287
    217  O         31.4890   21.0900   13.7950 O.2   496  ALA496     -0.2864
    218  CB        28.5700   19.3350   14.1730 C.3   496  ALA496      0.0319
    219  N         32.4850   20.6500   10.1410 N.3   498  PHE498     -0.1227
    220  CA        32.8730   21.7920    9.3220 C.3   498  PHE498      0.1736
    221  C         33.2040   22.9960   10.1820 C.2   498  PHE498      0.2596
    222  O         34.2220   23.6540    9.9840 O.2   498  PHE498     -0.2718
    223  CB        31.7260   22.1940    8.4070 C.3   498  PHE498      0.0547
    224  CG        31.6570   21.4310    7.1220 C.ar  498  PHE498     -0.0202
    225  CD1       30.4860   21.4470    6.3660 C.ar  498  PHE498     -0.0042
    226  CD2       32.7500   20.7130    6.6530 C.ar  498  PHE498     -0.0042
    227  CE1       30.4060   20.7620    5.1660 C.ar  498  PHE498     -0.0003
    228  CE2       32.6800   20.0190    5.4480 C.ar  498  PHE498     -0.0003
    229  CZ        31.5080   20.0440    4.7020 C.ar  498  PHE498     -0.0000
    230  N         32.3310   23.2800   11.1370 N.am  499  SER499     -0.1952
    231  CA        32.5120   24.4180   12.0120 C.3   499  SER499      0.1924
    232  C         33.6580   24.3020   12.9990 C.2   499  SER499      0.2314
    233  O         34.6250   25.0620   12.9170 O.2   499  SER499     -0.2863
    234  CB        31.2410   24.6770   12.7980 C.3   499  SER499      0.2116
    235  OG        31.5260   25.4750   13.9340 O.3   499  SER499     -0.2180
    236  N         37.4510   25.0550   11.3080 N.3   502  GLY502     -0.1210
    237  CA        37.8150   26.4560   11.1770 C.3   502  GLY502      0.1956
    238  C         37.7050   27.2420   12.4620 C.2   502  GLY502      0.2611
    239  O         38.2080   28.3520   12.5640 O.2   502  GLY502     -0.2717
    240  N         37.0150   26.6800   13.4410 N.am  503  LEU503     -0.1979
    241  CA        36.8780   27.3320   14.7360 C.3   503  LEU503      0.1596
    242  C         38.1290   27.0220   15.5560 C.2   503  LEU503      0.2287
    243  O         38.8120   27.9270   16.0410 O.2   503  LEU503     -0.2864
    244  CB        35.6400   26.8110   15.4710 C.3   503  LEU503      0.0297
    245  CG        34.6260   27.8380   16.0060 C.3   503  LEU503      0.0022
    246  CD1       35.1520   29.2710   15.8930 C.3   503  LEU503      0.0001
    247  CD2       33.3340   27.6850   15.2300 C.3   503  LEU503      0.0001
@<TRIPOS>BOND
     1   134   133    2
     2    43    42    1
     3    43    44    2
     4   133   132    1
     5   137   135    1
     6    42    45    1
     7    42    41    1
     8    33    32    2
     9   167   165   ar
    10   167   168   ar
    11    45    46    1
    12   150   151    1
    13   139   140    1
    14   165   163   ar
    15   169   168    1
    16   132   131    1
    17   132   135    1
    18   135   136    1
    19    47    46   ar
    20    47    49   ar
    21   168   166   ar
    22    46    48   ar
    23    32    41   am
    24    32    31    1
    25   141   140    1
    26   141   142    2
    27   157   155    1
    28   151   152    1
    29   151   154    1
    30   140   143    1
    31    49    51   ar
    32   229   227   ar
    33   229   228   ar
    34   163   162    1
    35   163   164   ar
    36   158   152   am
    37   158   159    1
    38   155   154    1
    39   155   156    1
    40   136   138    1
    41   227   225   ar
    42   160   159    1
    43   160   161    2
    44   143   144    1
    45   152   153    2
    46    48    50   ar
    47   162   159    1
    48   166   164   ar
    49   228   226   ar
    50   170   171    1
    51    31    30    1
    52    31    34    1
    53    51    50   ar
    54   126   125    2
    55   125   124    1
    56    34    35    1
    57   225   224   ar
    58    26    25    2
    59   172   171    1
    60   172   173    2
    61   171   174    1
    62   144   146   ar
    63   144   145   ar
    64   226   224   ar
    65   202   201    1
    66   146   148   ar
    67    52    53    1
    68   224   223    1
    69   130   128   am
    70    25    24    1
    71    35    37   ar
    72    35    36   ar
    73   124   123    1
    74   124   127    1
    75    37    39   ar
    76   176   175   ar
    77   176   178   ar
    78   145   147   ar
    79    28    27    1
    80   174   175    1
    81   148   149   ar
    82    27    24    1
    83    27    29    1
    84   128   127    1
    85   128   129    2
    86   175   177   ar
    87   201   200    1
    88    53    54    1
    89   223   220    1
    90   178   179   ar
    91    36    38   ar
    92    24    23    1
    93    55    54    2
    94   195   196    1
    95    39    40   ar
    96   196   199    1
    97   196   197    1
    98   147   149   ar
    99   199   200    1
   100    54    56   am
   101   220   219    1
   102   220   221    1
   103   177   179   ar
   104   177   180   ar
   105    15    14    2
   106   179   181   ar
   107    23    14   am
   108   210   211    1
   109    38    40   ar
   110   222   221    2
   111    14    13    1
   112   198   197    2
   113   197   203   am
   114   211   212    1
   115   221   230   am
   116   180   182   ar
   117    56    57    1
   118   181   183   ar
   119    12    13    1
   120   192   190   ar
   121   192   194   ar
   122   230   231    1
   123   237   236    1
   124   237   238    1
   125   190   189   ar
   126   203   204    1
   127    13    16    1
   128    57    58    1
   129    57    60    1
   130    58    59    2
   131   212   213    2
   132   212   214   am
   133   182   183   ar
   134   231   234    1
   135   231   232    1
   136   194   193   ar
   137   214   215    1
   138   205   206    2
   139   205   204    1
   140   189   188    1
   141   189   191   ar
   142   204   207    1
   143   238   239    2
   144   238   240   am
   145    16    17    1
   146   185   188    1
   147   185   186    1
   148   185   184    1
   149   186   187    2
   150    19    17   ar
   151    19    21   ar
   152    81    80    1
   153    17    18   ar
   154   234   235    1
   155    62    60    1
   156    60    61    1
   157    21    22   ar
   158   233   232    2
   159    18    20   ar
   160    22    20   ar
   161   193   191   ar
   162   216   215    1
   163   216   217    2
   164   240   241    1
   165   215   218    1
   166   207   209    1
   167   207   208    1
   168    80    78   ar
   169    80    79   ar
   170     4     3    2
   171    78    76   ar
   172     3     2    1
   173   241   244    1
   174   241   242    1
   175    79    77   ar
   176    96    94    1
   177   247   245    1
   178     2     5    1
   179     2     1    1
   180     5     6    1
   181     7     8    1
   182     7     6    1
   183   244   245    1
   184   242   243    2
   185     8     9    2
   186    94    95    1
   187    94    93    1
   188   246   245    1
   189    76    75   ar
   190    77    75   ar
   191     9    11    1
   192     9    10    1
   193    69    67    1
   194    68    67    1
   195    75    74    1
   196    93    90    1
   197    67    64    1
   198    88    86    1
   199    92    91    2
   200    74    71    1
   201    90    91    1
   202    90    89    1
   203    91    97   am
   204    87    86    1
   205    86    83    1
   206    64    65    1
   207    64    63    1
   208    83    82    1
   209    83    84    1
   210    82    72   am
   211    72    71    1
   212    72    73    2
   213    71    70    1
   214    65    66    2
   215   114   113    1
   216    97    98    1
   217    85    84    2
   218    98   101    1
   219    98    99    1
   220   101   102    1
   221   113   111   ar
   222   113   112   ar
   223    99   100    2
   224   111   109   ar
   225   112   110   ar
   226   121   120    1
   227   109   108   ar
   228   110   108   ar
   229   108   107    1
   230   120   122    1
   231   120   119    1
   232   103   104    1
   233   119   116    1
   234   107   104    1
   235   104   105    1
   236   116   117    1
   237   116   115    1
   238   117   118    2
   239   105   106    2
