@<TRIPOS>MOLECULE
tmp/1de5A00.pdb
 153 146 0 0 0
SMALL
GASTEIGER

@<TRIPOS>ATOM
      1  N         34.7600   19.1760   71.6090 N.3    39  TRP39      -0.1241
      2  CA        33.3060   19.0990   71.4410 C.3    39  TRP39       0.1605
      3  C         32.7170   17.8240   70.8730 C.2    39  TRP39       0.2264
      4  O         31.5040   17.6120   70.9000 O.2    39  TRP39      -0.2867
      5  CB        32.7450   20.3420   70.7350 C.3    39  TRP39       0.0550
      6  CG        33.3460   20.6580   69.3910 C.ar   39  TRP39       0.0003
      7  CD1       32.7840   20.3850   68.1690 C.ar   39  TRP39       0.0946
      8  CD2       34.5870   21.3860   69.1360 C.ar   39  TRP39       0.0152
      9  NE1       33.5960   20.8910   67.1770 N.ar   39  TRP39      -0.2442
     10  CE2       34.7190   21.4940   67.7260 C.ar   39  TRP39       0.0810
     11  CE3       35.6020   21.9380   69.9490 C.ar   39  TRP39       0.0012
     12  CZ2       35.8330   22.1490   67.1430 C.ar   39  TRP39       0.0191
     13  CZ3       36.6980   22.5630   69.3620 C.ar   39  TRP39       0.0001
     14  CH2       36.8090   22.6830   67.9730 C.ar   39  TRP39       0.0015
     15  N         29.1750   19.1680   71.5590 N.3    44  VAL44      -0.1245
     16  CA        29.2630   20.6070   71.6760 C.3    44  VAL44       0.1561
     17  C         28.4210   21.2220   72.8050 C.2    44  VAL44       0.2260
     18  O         28.0660   22.4110   72.7600 O.2    44  VAL44      -0.2867
     19  CB        28.9200   21.2290   70.2890 C.3    44  VAL44       0.0252
     20  CG1       29.8150   22.4350   69.9610 C.3    44  VAL44       0.0019
     21  CG2       29.1350   20.1990   69.1770 C.3    44  VAL44       0.0019
     22  N         24.5870   24.9660   63.6380 N.3    58  ILE58      -0.1245
     23  CA        25.2350   23.7150   63.6400 C.3    58  ILE58       0.1561
     24  C         24.3970   22.8780   64.5710 C.2    58  ILE58       0.2260
     25  O         23.7290   23.3930   65.4820 O.2    58  ILE58      -0.2867
     26  CB        26.6550   23.8630   64.1620 C.3    58  ILE58       0.0252
     27  CG1       26.5690   24.3760   65.6010 C.3    58  ILE58       0.0019
     28  CG2       27.3970   24.8630   63.2600 C.3    58  ILE58       0.0019
     29  CD1       27.8410   25.0040   66.1620 C.3    58  ILE58       0.0001
     30  N         37.0680   24.9370   73.4480 N.3    94  HIS94      -0.1241
     31  CA        36.0570   25.9790   73.3020 C.3    94  HIS94       0.1621
     32  C         35.8320   26.5860   74.6860 C.2    94  HIS94       0.2264
     33  O         35.9750   25.9160   75.6930 O.2    94  HIS94      -0.2867
     34  CB        34.7680   25.3790   72.7440 C.3    94  HIS94       0.0745
     35  CG        34.4000   26.1350   71.5150 C.ar   94  HIS94       0.0817
     36  ND1       34.1180   27.4460   71.3880 N.ar   94  HIS94      -0.2268
     37  CD2       34.4130   25.5550   70.2430 C.ar   94  HIS94       0.1154
     38  CE1       33.8850   27.6940   70.0690 C.ar   94  HIS94       0.1986
     39  NE2       34.0790   26.5310   69.4230 N.ar   94  HIS94      -0.2212
     40  N         39.2760   28.5380   71.4110 N.3   131  ASN131     -0.1240
     41  CA        38.2150   29.2060   70.6780 C.3   131  ASN131      0.1653
     42  C         37.2320   29.9790   71.5230 C.2   131  ASN131      0.2266
     43  O         36.7160   29.4640   72.4820 O.2   131  ASN131     -0.2867
     44  CB        37.2940   28.1910   69.9720 C.3   131  ASN131      0.1155
     45  CG        37.9760   27.0770   69.2020 C.2   131  ASN131      0.2627
     46  OD1       37.8640   27.1840   67.8980 O.2   131  ASN131     -0.2716
     47  ND2       38.5820   26.1320   69.7470 N.am  131  ASN131     -0.0877
     48  N         28.1410   31.0790   70.3580 N.3   135  PHE135     -0.1241
     49  CA        26.7940   30.5970   70.0470 C.3   135  PHE135      0.1605
     50  C         26.2210   29.9650   71.3040 C.2   135  PHE135      0.2264
     51  O         26.8420   30.0410   72.3700 O.2   135  PHE135     -0.2867
     52  CB        26.8280   29.4730   68.9970 C.3   135  PHE135      0.0534
     53  CG        27.8950   28.4620   69.3470 C.ar  135  PHE135     -0.0203
     54  CD1       29.2380   28.7460   69.1010 C.ar  135  PHE135     -0.0042
     55  CD2       27.5770   27.2470   69.9510 C.ar  135  PHE135     -0.0042
     56  CE1       30.2510   27.8400   69.4120 C.ar  135  PHE135     -0.0003
     57  CE2       28.5780   26.3300   70.2830 C.ar  135  PHE135     -0.0003
     58  CZ        29.9160   26.6310   70.0280 C.ar  135  PHE135     -0.0000
     59  N         35.2330   31.7910   65.1320 N.3   184  TRP184     -0.1241
     60  CA        34.0420   31.4640   64.3770 C.3   184  TRP184      0.1605
     61  C         32.7830   32.0480   65.0510 C.2   184  TRP184      0.2264
     62  O         32.5080   31.7540   66.2080 O.2   184  TRP184     -0.2867
     63  CB        33.8510   29.9590   64.0620 C.3   184  TRP184      0.0550
     64  CG        32.5360   29.7320   63.3110 C.ar  184  TRP184      0.0003
     65  CD1       32.3500   29.9250   61.9950 C.ar  184  TRP184      0.0946
     66  CD2       31.2470   29.3230   63.8220 C.ar  184  TRP184      0.0152
     67  NE1       31.0730   29.7000   61.6360 N.ar  184  TRP184     -0.2442
     68  CE2       30.3500   29.3300   62.7190 C.ar  184  TRP184      0.0810
     69  CE3       30.7490   28.9450   65.0740 C.ar  184  TRP184      0.0012
     70  CZ2       28.9790   28.9720   62.8460 C.ar  184  TRP184      0.0191
     71  CZ3       29.3990   28.6120   65.2000 C.ar  184  TRP184      0.0001
     72  CH2       28.5160   28.6040   64.1020 C.ar  184  TRP184      0.0015
     73  N         37.5780   31.9180   61.0100 N.3   225  GLU225     -0.1245
     74  CA        36.9090   30.8630   60.2110 C.3   225  GLU225      0.1567
     75  C         35.6740   31.3050   59.3940 C.2   225  GLU225      0.2260
     76  O         34.6350   31.6450   59.9680 O.2   225  GLU225     -0.2867
     77  CB        36.4330   29.7380   61.1380 C.3   225  GLU225      0.0388
     78  CG        35.9310   28.4780   60.4010 C.3   225  GLU225      0.1160
     79  CD        35.5890   27.3890   61.3970 C.2   225  GLU225      0.3649
     80  OE1       35.6010   27.5550   62.5910 O.co2 225  GLU225     -0.2457
     81  OE2       35.3350   26.2370   60.8690 O.co2 225  GLU225     -0.2457
     82  N         32.3430   30.7740   56.8160 N.3   227  LYS227     -0.1245
     83  CA        31.2600   29.8040   56.6810 C.3   227  LYS227      0.1561
     84  C         30.3660   30.3170   55.6030 C.2   227  LYS227      0.2260
     85  O         30.2920   31.5490   55.4220 O.2   227  LYS227     -0.2867
     86  CB        30.4450   29.6230   57.9450 C.3   227  LYS227      0.0271
     87  CG        29.8120   28.2500   58.0350 C.3   227  LYS227      0.0035
     88  CD        28.9860   28.0850   59.3130 C.3   227  LYS227      0.0206
     89  CE        28.2390   26.7730   59.3730 C.3   227  LYS227      0.1093
     90  NZ        27.8370   26.3100   60.7240 N.3   227  LYS227     -0.1314
     91  N         37.6830   25.4640   56.9480 N.3   258  ASP258     -0.1239
     92  CA        36.9360   24.2870   57.4180 C.3   258  ASP258      0.1674
     93  C         36.4140   23.4920   56.1970 C.2   258  ASP258      0.2266
     94  O         35.6250   24.0080   55.3530 O.2   258  ASP258     -0.2867
     95  CB        35.8580   24.6620   58.5180 C.3   258  ASP258      0.1410
     96  CG        35.0660   23.4670   59.0560 C.2   258  ASP258      0.3668
     97  OD1       34.8150   23.2760   60.2340 O.co2 258  ASP258     -0.2456
     98  OD2       34.6890   22.6080   58.1420 O.co2 258  ASP258     -0.2456
     99  N         32.8280   23.9410   55.1390 N.3   261  HIS261     -0.1241
    100  CA        32.1840   25.2510   55.0890 C.3   261  HIS261      0.1621
    101  C         32.0700   25.9770   53.7620 C.2   261  HIS261      0.2264
    102  O         32.0310   27.2220   53.7050 O.2   261  HIS261     -0.2867
    103  CB        33.1190   26.0850   55.9950 C.3   261  HIS261      0.0745
    104  CG        32.8020   25.9630   57.4600 C.ar  261  HIS261      0.0817
    105  ND1       32.7540   27.1000   58.2470 N.ar  261  HIS261     -0.2268
    106  CD2       32.4820   24.8970   58.2400 C.ar  261  HIS261      0.1154
    107  CE1       32.4140   26.7220   59.4600 C.ar  261  HIS261      0.1986
    108  NE2       32.2650   25.4030   59.5040 N.ar  261  HIS261     -0.2212
    109  N         40.2530   22.9470   59.5180 N.3   285  HIS285     -0.1241
    110  CA        39.2290   22.1970   60.2160 C.3   285  HIS285      0.1621
    111  C         38.8560   21.0760   59.2810 C.2   285  HIS285      0.2264
    112  O         37.9840   21.2450   58.4500 O.2   285  HIS285     -0.2867
    113  CB        37.9490   23.0070   60.5340 C.3   285  HIS285      0.0745
    114  CG        38.1630   23.7670   61.7900 C.ar  285  HIS285      0.0817
    115  ND1       37.2280   24.6220   62.3120 N.ar  285  HIS285     -0.2268
    116  CD2       39.2450   23.7830   62.5830 C.ar  285  HIS285      0.1154
    117  CE1       37.7300   25.1450   63.4000 C.ar  285  HIS285      0.1986
    118  NE2       38.9440   24.6550   63.5870 N.ar  285  HIS285     -0.2212
    119  N         27.0530   21.5350   56.3860 N.3   293  ASP293     -0.1239
    120  CA        28.1070   21.4750   57.4000 C.3   293  ASP293      0.1674
    121  C         27.6120   20.6520   58.5930 C.2   293  ASP293      0.2266
    122  O         27.3050   21.1970   59.6670 O.2   293  ASP293     -0.2867
    123  CB        28.4130   22.9300   57.8290 C.3   293  ASP293      0.1410
    124  CG        29.5420   22.9560   58.7860 C.2   293  ASP293      0.3668
    125  OD1       30.4200   22.1220   58.7230 O.co2 293  ASP293     -0.2456
    126  OD2       29.4310   23.8810   59.7090 O.co2 293  ASP293     -0.2456
    127  N         29.2290   18.0420   60.0420 N.3   295  ASP295     -0.1239
    128  CA        30.1090   17.4930   61.0200 C.3   295  ASP295      0.1674
    129  C         30.1350   15.9760   61.2360 C.2   295  ASP295      0.2266
    130  O         30.0940   15.4950   62.3820 O.2   295  ASP295     -0.2867
    131  CB        29.8480   18.3320   62.2930 C.3   295  ASP295      0.1410
    132  CG        30.2530   19.7730   62.0310 C.2   295  ASP295      0.3668
    133  OD1       31.4120   20.1040   61.8670 O.co2 295  ASP295     -0.2456
    134  OD2       29.2620   20.6270   61.9290 O.co2 295  ASP295     -0.2456
    135  N         37.3150   18.8480   62.8760 N.3   325  ASP325     -0.1239
    136  CA        36.0980   19.5350   63.3270 C.3   325  ASP325      0.1674
    137  C         34.9650   18.6430   62.9090 C.2   325  ASP325      0.2266
    138  O         34.7090   18.4850   61.7400 O.2   325  ASP325     -0.2867
    139  CB        35.9710   20.9970   62.8420 C.3   325  ASP325      0.1410
    140  CG        34.8010   21.8160   63.3000 C.2   325  ASP325      0.3668
    141  OD1       34.6530   22.9540   62.9480 O.co2 325  ASP325     -0.2456
    142  OD2       33.9900   21.2170   64.1360 O.co2 325  ASP325     -0.2456
    143  N         31.1880   16.5080   64.7120 N.3   327  PHE327     -0.1241
    144  CA        30.4330   16.1170   65.8630 C.3   327  PHE327      0.1605
    145  C         29.2640   15.2100   65.6240 C.2   327  PHE327      0.2264
    146  O         28.0940   15.6150   65.7160 O.2   327  PHE327     -0.2867
    147  CB        30.0150   17.2600   66.7600 C.3   327  PHE327      0.0534
    148  CG        29.7360   18.5370   66.0410 C.ar  327  PHE327     -0.0203
    149  CD1       28.4210   18.9630   65.8580 C.ar  327  PHE327     -0.0042
    150  CD2       30.7730   19.3930   65.6940 C.ar  327  PHE327     -0.0042
    151  CE1       28.1180   20.1700   65.2270 C.ar  327  PHE327     -0.0003
    152  CE2       30.4970   20.6140   65.0880 C.ar  327  PHE327     -0.0003
    153  CZ        29.1750   20.9930   64.8400 C.ar  327  PHE327     -0.0000
@<TRIPOS>BOND
     1   102   101    2
     2   101   100    1
     3   100    99    1
     4   100   103    1
     5    94    93    2
     6    85    84    2
     7    84    83    1
     8   103   104    1
     9    93    92    1
    10   119   120    1
    11    83    82    1
    12    83    86    1
    13    91    92    1
    14   120   123    1
    15   120   121    1
    16    92    95    1
    17   104   106   ar
    18   104   105   ar
    19   123   124    1
    20    86    87    1
    21    87    88    1
    22    98    96   ar
    23   106   108   ar
    24   105   107   ar
    25   112   111    2
    26    95    96    1
    27   121   122    2
    28   125   124   ar
    29   124   126   ar
    30    96    97   ar
    31   111   110    1
    32    88    89    1
    33    89    90    1
    34    75    76    2
    35    75    74    1
    36   107   108   ar
    37   109   110    1
    38   127   128    1
    39    74    73    1
    40    74    77    1
    41   110   113    1
    42    78    77    1
    43    78    79    1
    44   113   114    1
    45    81    79   ar
    46   128   129    1
    47   128   131    1
    48   129   130    2
    49    79    80   ar
    50    67    65   ar
    51    67    68   ar
    52   138   137    2
    53   114   115   ar
    54   114   116   ar
    55   133   132   ar
    56   134   132   ar
    57    65    64   ar
    58   132   131    1
    59   115   117   ar
    60   116   118   ar
    61    68    70   ar
    62    68    66   ar
    63   139   140    1
    64   139   136    1
    65    70    72   ar
    66   135   136    1
    67   137   136    1
    68   141   140   ar
    69    28    26    1
    70   140   142   ar
    71    64    66   ar
    72    64    63    1
    73   117   118   ar
    74    22    23    1
    75    23    26    1
    76    23    24    1
    77    66    69   ar
    78    63    60    1
    79    72    71   ar
    80    26    27    1
    81    60    61    1
    82    60    59    1
    83    24    25    2
    84   143   144    1
    85   153   152   ar
    86   153   151   ar
    87    61    62    2
    88    69    71   ar
    89   152   150   ar
    90   151   149   ar
    91    27    29    1
    92   145   146    2
    93   145   144    1
    94   150   148   ar
    95   149   148   ar
    96   144   147    1
    97   148   147    1
    98    12    10   ar
    99    12    14   ar
   100     9    10   ar
   101     9     7   ar
   102    10     8   ar
   103    46    45    2
   104    14    13   ar
   105     7     6   ar
   106    52    53    1
   107    52    49    1
   108    54    53   ar
   109    54    56   ar
   110     8     6   ar
   111     8    11   ar
   112    21    19    1
   113    45    47   am
   114    45    44    1
   115    53    55   ar
   116    13    11   ar
   117     6     5    1
   118    56    58   ar
   119    39    38   ar
   120    39    37   ar
   121    55    57   ar
   122    20    19    1
   123    44    41    1
   124    58    57   ar
   125    49    48    1
   126    49    50    1
   127    38    36   ar
   128    37    35   ar
   129    19    16    1
   130    41    40    1
   131    41    42    1
   132     5     2    1
   133     3     4    2
   134     3     2    1
   135    50    51    2
   136    36    35   ar
   137     2     1    1
   138    35    34    1
   139    42    43    2
   140    15    16    1
   141    16    17    1
   142    34    31    1
   143    18    17    2
   144    31    30    1
   145    31    32    1
   146    32    33    2
