@<TRIPOS>MOLECULE
tmp/1de9G00.pdb
 203 190 0 0 0
SMALL
GASTEIGER

@<TRIPOS>ATOM
      1  N         41.1740    6.6260   41.3560 N.3    54  GLU54      -0.1245
      2  CA        42.1620    6.6770   42.4430 C.3    54  GLU54       0.1567
      3  C         41.5380    7.2130   43.7310 C.2    54  GLU54       0.2260
      4  O         42.0200    8.1910   44.3030 O.2    54  GLU54      -0.2867
      5  CB        43.4000    7.5140   42.0690 C.3    54  GLU54       0.0388
      6  CG        44.4520    6.7890   41.2280 C.3    54  GLU54       0.1160
      7  CD        45.6870    7.6470   40.9490 C.2    54  GLU54       0.3649
      8  OE1       46.3060    8.1460   41.9150 O.co2  54  GLU54      -0.2457
      9  OE2       46.0440    7.8220   39.7610 O.co2  54  GLU54      -0.2457
     10  N         39.8980    3.4930   35.4750 N.3   129  TYR129     -0.1241
     11  CA        41.2410    3.9050   35.8710 C.3   129  TYR129      0.1605
     12  C         42.2080    2.8230   35.3790 C.2   129  TYR129      0.2264
     13  O         42.4490    1.8300   36.0620 O.2   129  TYR129     -0.2867
     14  CB        41.3740    4.0960   37.3870 C.3   129  TYR129      0.0534
     15  CG        42.8130    4.2870   37.8260 C.ar  129  TYR129     -0.0201
     16  CD1       43.6450    5.2110   37.1840 C.ar  129  TYR129     -0.0009
     17  CD2       43.3710    3.4790   38.8160 C.ar  129  TYR129     -0.0009
     18  CE1       45.0040    5.3180   37.5100 C.ar  129  TYR129      0.0417
     19  CE2       44.7280    3.5790   39.1520 C.ar  129  TYR129      0.0417
     20  CZ        45.5370    4.4960   38.4920 C.ar  129  TYR129      0.1957
     21  OH        46.8770    4.5590   38.7960 O.3   129  TYR129     -0.2866
     22  N         48.5560    1.4590   35.3010 N.3   132  ASN132     -0.1240
     23  CA        49.7770    2.1390   34.8800 C.3   132  ASN132      0.1653
     24  C         50.9530    1.1640   34.6990 C.2   132  ASN132      0.2266
     25  O         51.2000    0.3070   35.5560 O.2   132  ASN132     -0.2867
     26  CB        50.1330    3.2310   35.8990 C.3   132  ASN132      0.1155
     27  CG        51.2050    4.1800   35.3950 C.2   132  ASN132      0.2627
     28  OD1       51.7130    5.0130   36.1490 O.2   132  ASN132     -0.2716
     29  ND2       51.5480    4.0690   34.1110 N.am  132  ASN132     -0.0877
     30  N         57.2190    2.7650   36.4610 N.3   135  ARG135     -0.1231
     31  CA        58.5620    3.2230   36.1050 C.3   135  ARG135      0.1694
     32  C         59.3320    2.0570   35.5010 C.2   135  ARG135      0.2592
     33  O         59.0970    0.8970   35.8570 O.2   135  ARG135     -0.2718
     34  CB        59.3190    3.7380   37.3350 C.3   135  ARG135      0.0321
     35  CG        58.8080    5.0510   37.8870 C.3   135  ARG135      0.0489
     36  CD        59.1650    6.2330   36.9920 C.3   135  ARG135      0.2205
     37  NE        58.4530    7.4480   37.3940 N.pl3 135  ARG135     -0.0865
     38  CZ        58.5690    8.0360   38.5820 C.cat 135  ARG135      0.5346
     39  NH1       59.3970    7.5490   39.5010 N.pl3 135  ARG135      0.1354
     40  NH2       57.8650    9.1260   38.8460 N.pl3 135  ARG135      0.1354
     41  N         60.2420    2.3670   34.5820 N.am  136  GLY136     -0.1957
     42  CA        61.0280    1.3270   33.9460 C.3   136  GLY136      0.1869
     43  C         60.1650    0.3300   33.1960 C.2   136  GLY136      0.2309
     44  O         60.6080   -0.7880   32.9060 O.2   136  GLY136     -0.2863
     45  N         40.5400    8.1930   33.5970 N.3   168  ASP168     -0.1239
     46  CA        41.9830    8.1850   33.4260 C.3   168  ASP168      0.1674
     47  C         42.2880    6.9620   32.5910 C.2   168  ASP168      0.2266
     48  O         42.2020    5.8400   33.0760 O.2   168  ASP168     -0.2867
     49  CB        42.6760    8.0710   34.7930 C.3   168  ASP168      0.1410
     50  CG        44.1990    8.2010   34.7130 C.2   168  ASP168      0.3668
     51  OD1       44.7720    8.0450   33.6180 O.co2 168  ASP168     -0.2456
     52  OD2       44.8310    8.4580   35.7640 O.co2 168  ASP168     -0.2456
     53  N         45.0690    6.6890   31.1930 N.3   170  ASN170     -0.1240
     54  CA        46.5150    6.6790   31.3340 C.3   170  ASN170      0.1653
     55  C         47.3320    6.5650   30.0440 C.2   170  ASN170      0.2266
     56  O         48.0850    5.6030   29.8670 O.2   170  ASN170     -0.2867
     57  CB        46.9080    5.5660   32.3080 C.3   170  ASN170      0.1155
     58  CG        48.2830    5.7650   32.8970 C.2   170  ASN170      0.2627
     59  OD1       48.5040    6.6940   33.6820 O.2   170  ASN170     -0.2716
     60  ND2       49.2200    4.8830   32.5350 N.am  170  ASN170     -0.0877
     61  N         53.2670   17.5120   26.7370 N.3   179  ARG179     -0.1231
     62  CA        54.2630   18.5480   26.4950 C.3   179  ARG179      0.1694
     63  C         55.5060   18.0510   25.7360 C.2   179  ARG179      0.2592
     64  O         55.7350   18.4740   24.6040 O.2   179  ARG179     -0.2718
     65  CB        54.6570   19.2280   27.8090 C.3   179  ARG179      0.0321
     66  CG        55.4770   20.5040   27.6340 C.3   179  ARG179      0.0489
     67  CD        54.6710   21.5960   26.9360 C.3   179  ARG179      0.2205
     68  NE        55.3160   22.0910   25.7160 N.pl3 179  ARG179     -0.0865
     69  CZ        55.4080   23.3790   25.3890 C.cat 179  ARG179      0.5346
     70  NH1       54.8990   24.3020   26.2000 N.pl3 179  ARG179      0.1354
     71  NH2       55.9910   23.7470   24.2520 N.pl3 179  ARG179      0.1354
     72  N         56.3040   17.1720   26.3460 N.am  180  ASN180     -0.1974
     73  CA        57.5100   16.6450   25.6910 C.3   180  ASN180      0.1688
     74  C         57.1830   15.3080   25.0350 C.2   180  ASN180      0.2292
     75  O         57.2670   14.2600   25.6750 O.2   180  ASN180     -0.2864
     76  CB        58.6630   16.4180   26.6900 C.3   180  ASN180      0.1181
     77  CG        58.5520   17.2740   27.9560 C.2   180  ASN180      0.2629
     78  OD1       58.1460   18.4390   27.9120 O.2   180  ASN180     -0.2716
     79  ND2       58.9400   16.6960   29.0920 N.am  180  ASN180     -0.0877
     80  N         60.6850   13.4450   24.3910 N.3   183  GLY183     -0.1210
     81  CA        61.3980   13.0520   25.5960 C.3   183  GLY183      0.1956
     82  C         60.7510   11.9580   26.4250 C.2   183  GLY183      0.2611
     83  O         61.2810   11.5880   27.4710 O.2   183  GLY183     -0.2717
     84  N         59.6390   11.4070   25.9420 N.am  184  ASN184     -0.1974
     85  CA        58.9150   10.3710   26.6780 C.3   184  ASN184      0.1688
     86  C         58.5640    9.0950   25.9110 C.2   184  ASN184      0.2292
     87  O         57.8030    8.2690   26.4190 O.2   184  ASN184     -0.2864
     88  CB        57.6300   10.9620   27.2780 C.3   184  ASN184      0.1181
     89  CG        57.9060   12.0100   28.3350 C.2   184  ASN184      0.2629
     90  OD1       57.6480   13.1940   28.1300 O.2   184  ASN184     -0.2716
     91  ND2       58.4360   11.5800   29.4740 N.am  184  ASN184     -0.0877
     92  N         58.9050    6.4590   28.2000 N.3   187  ASN187     -0.1225
     93  CA        58.3520    6.6550   29.5450 C.3   187  ASN187      0.1785
     94  C         56.9430    6.0670   29.6260 C.2   187  ASN187      0.2597
     95  O         56.2240    6.0340   28.6240 O.2   187  ASN187     -0.2718
     96  CB        58.3170    8.1500   29.8980 C.3   187  ASN187      0.1169
     97  CG        58.1460    8.4040   31.3960 C.2   187  ASN187      0.2627
     98  OD1       57.0230    8.5360   31.9090 O.2   187  ASN187     -0.2716
     99  ND2       59.2660    8.4910   32.1010 N.am  187  ASN187     -0.0877
    100  N         56.5550    5.6110   30.8190 N.am  188  ALA188     -0.1966
    101  CA        55.2330    5.0240   31.0540 C.3   188  ALA188      0.1728
    102  C         54.1020    6.0250   30.8140 C.2   188  ALA188      0.2616
    103  O         54.0430    7.0750   31.4630 O.2   188  ALA188     -0.2715
    104  CB        55.1500    4.4760   32.4660 C.3   188  ALA188      0.0334
    105  N         53.2070    5.6870   29.8860 N.am  189  GLY189     -0.1955
    106  CA        52.0870    6.5510   29.5580 C.3   189  GLY189      0.1869
    107  C         52.1430    7.0680   28.1280 C.2   189  GLY189      0.2309
    108  O         51.1790    7.6660   27.6410 O.2   189  GLY189     -0.2863
    109  N         46.7250   16.1090   33.2620 N.3   224  PHE224     -0.1241
    110  CA        47.6690   15.6590   34.2820 C.3   224  PHE224      0.1605
    111  C         48.9180   16.5270   34.3440 C.2   224  PHE224      0.2264
    112  O         49.3960   17.0110   33.3260 O.2   224  PHE224     -0.2867
    113  CB        48.0780   14.2020   34.0260 C.3   224  PHE224      0.0534
    114  CG        49.2830   13.7550   34.8190 C.ar  224  PHE224     -0.0203
    115  CD1       49.1650   13.4110   36.1590 C.ar  224  PHE224     -0.0042
    116  CD2       50.5390   13.6880   34.2220 C.ar  224  PHE224     -0.0042
    117  CE1       50.2780   13.0100   36.8920 C.ar  224  PHE224     -0.0003
    118  CE2       51.6560   13.2870   34.9500 C.ar  224  PHE224     -0.0003
    119  CZ        51.5230   12.9480   36.2840 C.ar  224  PHE224     -0.0000
    120  N         52.5390   16.4130   36.8660 N.3   226  THR226     -0.1218
    121  CA        53.2580   15.8600   38.0030 C.3   226  THR226      0.1862
    122  C         53.5440   16.9720   39.0140 C.2   226  THR226      0.2287
    123  O         53.8400   18.1100   38.6390 O.2   226  THR226     -0.2866
    124  CB        54.5710   15.1530   37.5700 C.3   226  THR226      0.1770
    125  OG1       55.2070   14.5890   38.7200 O.3   226  THR226     -0.2211
    126  CG2       55.5290   16.1170   36.8840 C.3   226  THR226      0.0375
    127  N         55.9550   17.1710   40.8630 N.3   228  MET228     -0.1230
    128  CA        57.3980   17.4080   40.8510 C.3   228  MET228      0.1702
    129  C         57.7940   18.5540   39.9490 C.2   228  MET228      0.2592
    130  O         57.1180   18.8380   38.9640 O.2   228  MET228     -0.2718
    131  CB        58.1480   16.1760   40.3570 C.3   228  MET228      0.0401
    132  CG        58.0570   14.9820   41.2570 C.3   228  MET228      0.0596
    133  SD        59.1980   13.7150   40.7110 S.3   228  MET228     -0.1393
    134  CE        58.2070   12.8490   39.5200 C.3   228  MET228      0.0692
    135  N         58.9050   19.1970   40.2920 N.am  229  MET229     -0.1979
    136  CA        59.4610   20.2920   39.5050 C.3   229  MET229      0.1605
    137  C         58.4690   21.4050   39.1630 C.2   229  MET229      0.2287
    138  O         58.6760   22.1380   38.1950 O.2   229  MET229     -0.2864
    139  CB        60.0530   19.7220   38.2110 C.3   229  MET229      0.0413
    140  CG        60.8840   18.4560   38.4030 C.3   229  MET229      0.0598
    141  SD        62.5970   18.7570   38.8840 S.3   229  MET229     -0.1393
    142  CE        62.4440   19.2540   40.6160 C.3   229  MET229      0.0692
    143  N         55.5610   21.2540   37.8480 N.3   231  ALA231     -0.1245
    144  CA        55.0810   21.0190   36.4860 C.3   231  ALA231      0.1562
    145  C         53.7890   21.7340   36.0820 C.2   231  ALA231      0.2260
    146  O         53.6900   22.2580   34.9680 O.2   231  ALA231     -0.2867
    147  CB        54.9540   19.5300   36.2310 C.3   231  ALA231      0.0290
    148  N         54.2060   25.4080   34.8810 N.3   234  LYS234     -0.1245
    149  CA        54.7680   25.5780   33.5400 C.3   234  LYS234      0.1561
    150  C         53.9160   24.9100   32.4650 C.2   234  LYS234      0.2260
    151  O         54.2590   24.9380   31.2800 O.2   234  LYS234     -0.2867
    152  CB        56.1770   24.9810   33.5000 C.3   234  LYS234      0.0271
    153  CG        57.1890   25.7260   34.3500 C.3   234  LYS234      0.0035
    154  CD        58.4870   24.9420   34.5320 C.3   234  LYS234      0.0206
    155  CE        58.3020   23.7470   35.4650 C.3   234  LYS234      0.1093
    156  NZ        59.6050   23.1550   35.9100 N.3   234  LYS234     -0.1314
    157  N         53.4550   21.7540   32.0610 N.3   236  VAL236     -0.1245
    158  CA        54.1470   20.5760   31.5450 C.3   236  VAL236      0.1561
    159  C         53.3100   19.3790   31.9930 C.2   236  VAL236      0.2260
    160  O         53.5950   18.7190   33.0050 O.2   236  VAL236     -0.2867
    161  CB        55.5840   20.4660   32.0900 C.3   236  VAL236      0.0252
    162  CG1       56.2630   19.2230   31.5340 C.3   236  VAL236      0.0019
    163  CG2       56.3700   21.6990   31.7060 C.3   236  VAL236      0.0019
    164  N         50.1400   16.1560   30.7870 N.3   238  TRP238     -0.1241
    165  CA        49.6640   15.1430   29.8570 C.3   238  TRP238      0.1605
    166  C         48.1410   15.1280   29.8460 C.2   238  TRP238      0.2264
    167  O         47.4900   15.5760   30.7920 O.2   238  TRP238     -0.2867
    168  CB        50.1430   13.7490   30.2910 C.3   238  TRP238      0.0550
    169  CG        51.6410   13.5550   30.4110 C.ar  238  TRP238      0.0003
    170  CD1       52.5660   14.4570   30.8730 C.ar  238  TRP238      0.0946
    171  CD2       52.3690   12.3570   30.1200 C.ar  238  TRP238      0.0152
    172  NE1       53.8170   13.8910   30.8930 N.ar  238  TRP238     -0.2442
    173  CE2       53.7260   12.6020   30.4380 C.ar  238  TRP238      0.0810
    174  CE3       52.0060   11.0980   29.6300 C.ar  238  TRP238      0.0012
    175  CZ2       54.7190   11.6300   30.2820 C.ar  238  TRP238      0.0191
    176  CZ3       52.9900   10.1370   29.4760 C.ar  238  TRP238      0.0001
    177  CH2       54.3340   10.4070   29.8030 C.ar  238  TRP238      0.0015
    178  N         45.4760   12.5640   29.9580 N.3   240  LEU240     -0.1245
    179  CA        45.1970   11.1610   30.2470 C.3   240  LEU240      0.1561
    180  C         43.7440   10.8840   30.5860 C.2   240  LEU240      0.2260
    181  O         43.3520    9.7340   30.7450 O.2   240  LEU240     -0.2867
    182  CB        46.0710   10.6930   31.4090 C.3   240  LEU240      0.0270
    183  CG        47.5740   10.9520   31.2880 C.3   240  LEU240      0.0019
    184  CD1       48.2820   10.5250   32.5620 C.3   240  LEU240      0.0001
    185  CD2       48.1440   10.2130   30.0860 C.3   240  LEU240      0.0001
    186  N         46.5610   15.9670   41.2890 N.3   266  ASP266     -0.1225
    187  CA        47.5660   16.0210   40.2250 C.3   266  ASP266      0.1805
    188  C         46.8930   15.9690   38.8680 C.2   266  ASP266      0.2597
    189  O         47.5160   16.2480   37.8400 O.2   266  ASP266     -0.2718
    190  CB        48.6370   14.9080   40.3560 C.3   266  ASP266      0.1424
    191  CG        48.0580   13.4960   40.4210 C.2   266  ASP266      0.3668
    192  OD1       46.8260   13.3160   40.4300 O.co2 266  ASP266     -0.2456
    193  OD2       48.8610   12.5460   40.4730 O.co2 266  ASP266     -0.2456
    194  N         45.6140   15.6010   38.8870 N.am  267  HIS267     -0.1975
    195  CA        44.7860   15.5390   37.6920 C.3   267  HIS267      0.1656
    196  C         43.7230   16.6280   37.8290 C.2   267  HIS267      0.2291
    197  O         43.4560   17.1110   38.9360 O.2   267  HIS267     -0.2864
    198  CB        44.0960   14.1740   37.5750 C.3   267  HIS267      0.0771
    199  CG        44.9950   13.0680   37.1140 C.ar  267  HIS267      0.0820
    200  ND1       44.8170   12.4220   35.9100 N.ar  267  HIS267     -0.2267
    201  CD2       46.0470   12.4630   37.7120 C.ar  267  HIS267      0.1154
    202  CE1       45.7180   11.4640   35.7880 C.ar  267  HIS267      0.1986
    203  NE2       46.4770   11.4680   36.8690 N.ar  267  HIS267     -0.2212
@<TRIPOS>BOND
     1    71    69    1
     2    80    81    1
     3    64    63    2
     4    74    75    2
     5    74    73    1
     6    69    68    2
     7    69    70    1
     8    81    82    1
     9    73    72    1
    10    73    76    1
    11    68    67    1
    12    63    72   am
    13    63    62    1
    14    86    87    2
    15    86    85    1
    16    84    82   am
    17    84    85    1
    18    82    83    2
    19    62    61    1
    20    62    65    1
    21    85    88    1
    22    76    77    1
    23    67    66    1
    24    88    89    1
    25    66    65    1
    26   108   107    2
    27    78    77    2
    28    77    79   am
    29   107   106    1
    30    90    89    2
    31    92    93    1
    32    89    91   am
    33    95    94    2
    34   176   174   ar
    35   176   177   ar
    36    93    94    1
    37    93    96    1
    38   106   105    1
    39    94   100   am
    40   174   171   ar
    41   177   175   ar
    42   166   165    1
    43   166   167    2
    44   165   168    1
    45   165   164    1
    46    56    55    2
    47   105   102   am
    48    96    97    1
    49   178   179    1
    50    55    54    1
    51   185   183    1
    52   171   169   ar
    53   171   173   ar
    54   179   180    1
    55   179   182    1
    56   175   173   ar
    57   168   169    1
    58   169   170   ar
    59   173   172   ar
    60   180   181    2
    61   102   101    1
    62   102   103    2
    63   100   101    1
    64   170   172   ar
    65   101   104    1
    66    53    54    1
    67   151   150    2
    68   183   182    1
    69   183   184    1
    70    54    57    1
    71    97    98    2
    72    97    99   am
    73   162   161    1
    74   158   159    1
    75   158   157    1
    76   158   161    1
    77   163   161    1
    78   159   160    2
    79    57    58    1
    80   150   149    1
    81    60    58   am
    82    47    48    2
    83    47    46    1
    84    58    59    2
    85    44    43    2
    86    43    42    1
    87   109   110    1
    88   112   111    2
    89    46    45    1
    90    46    49    1
    91   152   149    1
    92   152   153    1
    93   149   148    1
    94    51    50   ar
    95    42    41    1
    96   113   110    1
    97   113   114    1
    98    29    27   am
    99   116   114   ar
   100   116   118   ar
   101   110   111    1
   102   153   154    1
   103   154   155    1
   104    41    32   am
   105    24    23    1
   106    24    25    2
   107    50    49    1
   108    50    52   ar
   109   114   115   ar
   110    23    22    1
   111    23    26    1
   112   118   119   ar
   113   146   145    2
   114    12    11    1
   115    12    13    2
   116    27    26    1
   117    27    28    2
   118   155   156    1
   119    10    11    1
   120    32    33    2
   121    32    31    1
   122   202   200   ar
   123   202   203   ar
   124    11    14    1
   125   200   199   ar
   126   145   144    1
   127    31    30    1
   128    31    34    1
   129   115   117   ar
   130   147   144    1
   131   119   117   ar
   132   144   143    1
   133   120   121    1
   134   203   201   ar
   135   126   124    1
   136    36    37    1
   137    36    35    1
   138   199   198    1
   139   199   201   ar
   140    16    18   ar
   141    16    15   ar
   142    34    35    1
   143    14    15    1
   144    37    38    2
   145    18    20   ar
   146   124   121    1
   147   124   125    1
   148   198   195    1
   149   195   196    1
   150   195   194    1
   151    15    17   ar
   152   196   197    2
   153   189   188    2
   154   121   122    1
   155   138   137    2
   156   139   140    1
   157   139   136    1
   158   140   141    1
   159    20    21    1
   160    20    19   ar
   161    38    40    1
   162    38    39    1
   163   123   122    2
   164    17    19   ar
   165   188   194   am
   166   188   187    1
   167   141   142    1
   168   130   129    2
   169   137   136    1
   170   136   135    1
   171   134   133    1
   172     9     7   ar
   173   129   135   am
   174   129   128    1
   175   187   190    1
   176   187   186    1
   177   190   191    1
   178   131   128    1
   179   131   132    1
   180   191   192   ar
   181   191   193   ar
   182   133   132    1
   183   128   127    1
   184     7     6    1
   185     7     8   ar
   186     6     5    1
   187     1     2    1
   188     5     2    1
   189     2     3    1
   190     3     4    2
