@<TRIPOS>MOLECULE
tmp/1dedA01.pdb
 104 105 0 0 0
SMALL
GASTEIGER

@<TRIPOS>ATOM
      1  N         20.9330   62.7750   -4.6750 N.3   616  TRP616     -0.1241
      2  CA        19.5520   62.9960   -4.2810 C.3   616  TRP616      0.1605
      3  C         18.7570   61.7850   -3.8460 C.2   616  TRP616      0.2264
      4  O         17.5510   61.9040   -3.5840 O.2   616  TRP616     -0.2867
      5  CB        18.7770   63.6970   -5.4070 C.3   616  TRP616      0.0550
      6  CG        19.2940   65.0880   -5.7320 C.ar  616  TRP616      0.0003
      7  CD1       19.7080   65.3790   -7.0010 C.ar  616  TRP616      0.0946
      8  CD2       19.3900   66.1600   -4.8820 C.ar  616  TRP616      0.0152
      9  NE1       20.0660   66.6420   -6.9540 N.ar  616  TRP616     -0.2442
     10  CE2       19.8960   67.1400   -5.7270 C.ar  616  TRP616      0.0810
     11  CE3       19.1310   66.4570   -3.5560 C.ar  616  TRP616      0.0012
     12  CZ2       20.1450   68.4270   -5.2830 C.ar  616  TRP616      0.0191
     13  CZ3       19.3750   67.7460   -3.0990 C.ar  616  TRP616      0.0001
     14  CH2       19.8790   68.7210   -3.9500 C.ar  616  TRP616      0.0015
     15  N         24.8390   71.0620   -4.6820 N.3   649  GLU649     -0.1245
     16  CA        23.5540   71.4350   -4.1590 C.3   649  GLU649      0.1567
     17  C         23.2160   70.3230   -3.2230 C.2   649  GLU649      0.2260
     18  O         23.5380   69.1820   -3.5360 O.2   649  GLU649     -0.2867
     19  CB        22.4830   71.4600   -5.1850 C.3   649  GLU649      0.0388
     20  CG        22.6360   72.5370   -6.2060 C.3   649  GLU649      0.1160
     21  CD        21.4750   72.5780   -7.1820 C.2   649  GLU649      0.3649
     22  OE1       20.5100   71.8280   -7.0380 O.co2 649  GLU649     -0.2457
     23  OE2       21.5440   73.3720   -8.1150 O.co2 649  GLU649     -0.2457
     24  N         20.4690   69.1650    0.3970 N.3   651  LYS651     -0.1245
     25  CA        19.4440   69.4420    1.3670 C.3   651  LYS651      0.1561
     26  C         19.5650   68.4050    2.4510 C.2   651  LYS651      0.2260
     27  O         20.1620   67.3610    2.2330 O.2   651  LYS651     -0.2867
     28  CB        18.0310   69.3230    0.8150 C.3   651  LYS651      0.0271
     29  CG        17.5420   70.4960    0.0260 C.3   651  LYS651      0.0035
     30  CD        16.0570   70.2510    0.0580 C.3   651  LYS651      0.0206
     31  CE        15.3570   71.4230   -0.5770 C.3   651  LYS651      0.1093
     32  NZ        13.9760   71.3370   -0.1730 N.3   651  LYS651     -0.1314
     33  N         11.5380   62.9690    5.6140 N.3   661  THR661     -0.1203
     34  CA        11.0270   64.3250    5.7030 C.3   661  THR661      0.1994
     35  C         12.1270   65.2490    5.1730 C.2   661  THR661      0.2618
     36  O         13.1810   65.4180    5.7960 O.2   661  THR661     -0.2717
     37  CB        10.6860   64.6700    7.1660 C.3   661  THR661      0.1784
     38  OG1        9.8110   63.6640    7.7000 O.3   661  THR661     -0.2211
     39  CG2       10.0530   66.0320    7.2370 C.3   661  THR661      0.0376
     40  N         11.9280   65.8040    3.9800 N.am  662  TRP662     -0.1961
     41  CA        12.9010   66.6760    3.3490 C.3   662  TRP662      0.1771
     42  C         12.7620   68.0540    3.9450 C.2   662  TRP662      0.2623
     43  O         11.6350   68.4020    4.2950 O.2   662  TRP662     -0.2715
     44  CB        12.6340   66.8050    1.8860 C.3   662  TRP662      0.0590
     45  CG        12.9670   65.5680    1.0960 C.ar  662  TRP662      0.0006
     46  CD1       12.0640   64.5610    0.9190 C.ar  662  TRP662      0.0946
     47  CD2       14.1650   65.3610    0.4780 C.ar  662  TRP662      0.0152
     48  NE1       12.6940   63.6970    0.1690 N.ar  662  TRP662     -0.2442
     49  CE2       13.9420   64.1230   -0.1150 C.ar  662  TRP662      0.0810
     50  CE3       15.3820   66.0210    0.3420 C.ar  662  TRP662      0.0012
     51  CZ2       14.9440   63.5210   -0.8680 C.ar  662  TRP662      0.0191
     52  CZ3       16.3800   65.4100   -0.4100 C.ar  662  TRP662      0.0001
     53  CH2       16.1580   64.1690   -1.0100 C.ar  662  TRP662      0.0015
     54  N         13.8060   68.8600    4.0720 N.am  663  GLU663     -0.1918
     55  CA        13.5630   70.1930    4.5400 C.3   663  GLU663      0.1949
     56  C         12.9160   70.9520    3.3960 C.2   663  GLU663      0.2659
     57  O         13.0970   70.6020    2.2280 O.2   663  GLU663     -0.2711
     58  CB        14.8800   70.8140    5.0060 C.2   663  GLU663      0.0111
     59  CG        16.1140   70.8560    4.1510 C.2   663  GLU663      0.0838
     60  CD        17.3050   71.6080    4.7380 C.2   663  GLU663      0.3877
     61  OE1       17.2710   72.0940    5.8810 O.co2 663  GLU663     -0.2406
     62  OE2       18.2860   71.7190    4.0060 O.co2 663  GLU663     -0.2406
     63  N         12.0290   71.8940    3.7020 N.am  664  GLY664     -0.1937
     64  CA        11.3750   72.7030    2.6910 C.3   664  GLY664      0.2014
     65  C         12.3360   73.7270    2.1400 C.2   664  GLY664      0.2639
     66  O         13.5150   73.8110    2.4970 O.2   664  GLY664     -0.2714
     67  N         11.8390   74.5590    1.2720 N.am  665  GLY665     -0.1939
     68  CA        12.6940   75.5420    0.6670 C.3   665  GLY665      0.2014
     69  C         13.3970   74.9940   -0.5530 C.2   665  GLY665      0.2639
     70  O         13.1780   73.9020   -1.0700 O.2   665  GLY665     -0.2714
     71  N         14.2110   75.8990   -1.0370 N.am  666  ALA666     -0.1963
     72  CA        15.0430   75.6570   -2.1820 C.3   666  ALA666      0.1728
     73  C         16.2730   74.8710   -1.7130 C.2   666  ALA666      0.2616
     74  O         16.5840   74.7570   -0.5110 O.2   666  ALA666     -0.2715
     75  CB        15.4550   77.0070   -2.7600 C.3   666  ALA666      0.0334
     76  N         16.9390   74.3200   -2.7220 N.am  667  ASN667     -0.1972
     77  CA        18.1350   73.5240   -2.5370 C.3   667  ASN667      0.1688
     78  C         19.2040   74.4320   -1.9740 C.2   667  ASN667      0.2292
     79  O         19.3920   75.5250   -2.5300 O.2   667  ASN667     -0.2864
     80  CB        18.6440   72.9700   -3.8570 C.3   667  ASN667      0.1181
     81  CG        17.8170   71.8630   -4.4710 C.2   667  ASN667      0.2629
     82  OD1       16.9810   71.2390   -3.8380 O.2   667  ASN667     -0.2716
     83  ND2       17.9760   71.5930   -5.7560 N.am  667  ASN667     -0.0877
     84  N         17.6130   74.3230   10.0760 N.3   684  TRP684     -0.1241
     85  CA        16.5840   73.5470    9.4120 C.3   684  TRP684      0.1605
     86  C         15.5340   74.4630    8.7690 C.2   684  TRP684      0.2264
     87  O         14.9440   75.3070    9.4520 O.2   684  TRP684     -0.2867
     88  CB        15.9300   72.5870   10.4400 C.3   684  TRP684      0.0550
     89  CG        14.8930   71.6680    9.7980 C.ar  684  TRP684      0.0003
     90  CD1       13.5730   72.0500    9.7490 C.ar  684  TRP684      0.0946
     91  CD2       15.1310   70.4750    9.1450 C.ar  684  TRP684      0.0152
     92  NE1       12.9780   71.1220    9.0450 N.ar  684  TRP684     -0.2442
     93  CE2       13.8460   70.1750    8.6700 C.ar  684  TRP684      0.0810
     94  CE3       16.1900   69.6110    8.8690 C.ar  684  TRP684      0.0012
     95  CZ2       13.5980   69.0280    7.9240 C.ar  684  TRP684      0.0191
     96  CZ3       15.9480   68.4590    8.1210 C.ar  684  TRP684      0.0001
     97  CH2       14.6660   68.1710    7.6520 C.ar  684  TRP684      0.0015
     98  N         12.0470   74.5780    7.3010 N.3   686  PRO686     -0.2116
     99  CA        10.8270   73.8020    7.2510 C.3   686  PRO686      0.1372
    100  C         10.1070   74.0500    5.9220 C.2   686  PRO686      0.2244
    101  O         10.2250   75.1060    5.2830 O.2   686  PRO686     -0.2868
    102  CB        10.0880   74.2590    8.4810 C.3   686  PRO686      0.0268
    103  CG        11.0620   75.1320    9.2570 C.3   686  PRO686      0.0207
    104  CD        11.8980   75.7480    8.1610 C.3   686  PRO686      0.0892
@<TRIPOS>BOND
     1    23    21   ar
     2    21    22   ar
     3    21    20    1
     4     7     9   ar
     5     7     6   ar
     6     9    10   ar
     7    20    19    1
     8    83    81   am
     9     6     5    1
    10     6     8   ar
    11    10    12   ar
    12    10     8   ar
    13     5     2    1
    14    12    14   ar
    15    19    16    1
    16     8    11   ar
    17    15    16    1
    18     1     2    1
    19    81    80    1
    20    81    82    2
    21     2     3    1
    22    16    17    1
    23    14    13   ar
    24    80    77    1
    25     3     4    2
    26    11    13   ar
    27    18    17    2
    28    75    72    1
    29    76    77    1
    30    76    73   am
    31    77    78    1
    32    79    78    2
    33    72    73    1
    34    72    71    1
    35    73    74    2
    36    70    69    2
    37    71    69   am
    38    53    51   ar
    39    53    52   ar
    40    51    49   ar
    41    31    32    1
    42    31    30    1
    43    69    68    1
    44    52    50   ar
    45    49    48   ar
    46    49    47   ar
    47    29    30    1
    48    29    28    1
    49    48    46   ar
    50    50    47   ar
    51    24    25    1
    52    47    45   ar
    53    68    67    1
    54    28    25    1
    55    46    45   ar
    56    45    44    1
    57    67    65   am
    58    25    26    1
    59    44    41    1
    60    65    66    2
    61    65    64    1
    62    57    56    2
    63    27    26    2
    64    64    63    1
    65    41    42    1
    66    41    40    1
    67    56    63   am
    68    56    55    1
    69    42    54   am
    70    42    43    2
    71    40    35   am
    72    62    60   ar
    73    54    55    1
    74    59    60    1
    75    59    58    2
    76    55    58    1
    77    60    61   ar
    78    35    34    1
    79    35    36    2
    80   101   100    2
    81    33    34    1
    82    34    37    1
    83   100    99    1
    84    37    39    1
    85    37    38    1
    86    99    98    1
    87    99   102    1
    88    98   104    1
    89    97    95   ar
    90    97    96   ar
    91    95    93   ar
    92    96    94   ar
    93   104   103    1
    94   102   103    1
    95    93    92   ar
    96    93    91   ar
    97    86    85    1
    98    86    87    2
    99    94    91   ar
   100    92    90   ar
   101    91    89   ar
   102    85    84    1
   103    85    88    1
   104    90    89   ar
   105    89    88    1
