@<TRIPOS>MOLECULE
tmp/1delB01.pdb
 97 91 0 0 0
SMALL
GASTEIGER

@<TRIPOS>ATOM
      1  N         83.8730   10.5040   34.6440 N.3     9  VAL9       -0.1245
      2  CA        84.3500   11.8340   35.0240 C.3     9  VAL9        0.1561
      3  C         85.7710   12.0140   34.5180 C.2     9  VAL9        0.2260
      4  O         86.3780   11.0270   34.1310 O.2     9  VAL9       -0.2867
      5  CB        84.2190   12.1160   36.5100 C.3     9  VAL9        0.0252
      6  CG1       82.7710   11.8340   36.9260 C.3     9  VAL9        0.0019
      7  CG2       85.1910   11.3290   37.3880 C.3     9  VAL9        0.0019
      8  N         89.5200   12.2400   34.0300 N.3    11  ARG11      -0.1231
      9  CA        90.5730   11.3730   34.4610 C.3    11  ARG11       0.1694
     10  C         90.1260    9.9840   34.9010 C.2    11  ARG11       0.2593
     11  O         90.9830    9.2520   35.4390 O.2    11  ARG11      -0.2718
     12  CB        91.4310   11.9990   35.5660 C.3    11  ARG11       0.0321
     13  CG        92.3120   13.1790   35.2390 C.3    11  ARG11       0.0489
     14  CD        92.7950   13.9200   36.4870 C.3    11  ARG11       0.2205
     15  NE        91.7450   14.5950   37.2200 N.pl3  11  ARG11      -0.0865
     16  CZ        91.5440   14.6960   38.5210 C.cat  11  ARG11       0.5346
     17  NH1       92.3530   14.1430   39.4130 N.pl3  11  ARG11       0.1354
     18  NH2       90.4730   15.3630   38.9640 N.pl3  11  ARG11       0.1354
     19  N         88.8820    9.5550   34.7160 N.am   12  SER12      -0.1938
     20  CA        88.4680    8.2150   35.1380 C.3    12  SER12       0.2055
     21  C         89.0200    7.1630   34.1830 C.2    12  SER12       0.2644
     22  O         89.1240    5.9900   34.5030 O.2    12  SER12      -0.2714
     23  CB        86.9250    8.0750   35.1240 C.3    12  SER12       0.2130
     24  OG        86.4620    8.6530   33.9170 O.3    12  SER12      -0.2179
     25  N         89.4120    7.6350   33.0040 N.am   13  GLY13      -0.1939
     26  CA        89.9160    6.7450   31.9690 C.3    13  GLY13       0.2014
     27  C         88.8150    6.4770   30.9360 C.2    13  GLY13       0.2639
     28  O         88.9000    5.5080   30.1780 O.2    13  GLY13      -0.2714
     29  N         87.7740    7.3090   30.9270 N.am   14  LYS14      -0.1963
     30  CA        86.6710    7.1470   30.0110 C.3    14  LYS14       0.1728
     31  C         87.1000    7.4660   28.5750 C.2    14  LYS14       0.2616
     32  O         86.7700    6.7940   27.5850 O.2    14  LYS14      -0.2715
     33  CB        85.4710    7.9900   30.4380 C.3    14  LYS14       0.0311
     34  CG        84.4120    8.0940   29.3230 C.3    14  LYS14       0.0038
     35  CD        83.4980    9.2650   29.4560 C.3    14  LYS14       0.0206
     36  CE        84.0600   10.5600   28.8680 C.3    14  LYS14       0.1093
     37  NZ        83.1620   11.7040   29.2330 N.3    14  LYS14      -0.1314
     38  N         87.9230    8.4860   28.4310 N.am   15  ASP15      -0.1957
     39  CA        88.4440    8.9030   27.1380 C.3    15  ASP15       0.1840
     40  C         89.4420    7.9170   26.5750 C.2    15  ASP15       0.2622
     41  O         89.5210    7.6820   25.3640 O.2    15  ASP15      -0.2715
     42  CB        88.9740   10.3360   27.2370 C.3    15  ASP15       0.1450
     43  CG        87.7850   11.3020   27.1410 C.2    15  ASP15       0.3671
     44  OD1       86.7890   10.9050   26.4880 O.co2  15  ASP15      -0.2456
     45  OD2       87.8290   12.4060   27.6980 O.co2  15  ASP15      -0.2456
     46  N         90.2000    7.2870   27.4500 N.am   16  THR16      -0.1951
     47  CA        91.1760    6.2690   27.0930 C.3    16  THR16       0.1897
     48  C         90.4150    5.0510   26.5830 C.2    16  THR16       0.2313
     49  O         90.8630    4.3410   25.7110 O.2    16  THR16      -0.2863
     50  CB        91.9890    5.8660   28.3490 C.3    16  THR16       0.1794
     51  OG1       92.8270    6.9910   28.6760 O.3    16  THR16      -0.2208
     52  CG2       92.8070    4.6340   28.1060 C.3    16  THR16       0.0378
     53  N         86.9630    5.2060   38.7340 N.3   197  ARG197     -0.1245
     54  CA        88.2330    5.0530   39.4740 C.3   197  ARG197      0.1563
     55  C         87.9130    4.9120   40.9670 C.2   197  ARG197      0.2260
     56  O         87.0310    5.6180   41.4930 O.2   197  ARG197     -0.2867
     57  CB        89.0480    6.3170   39.1790 C.3   197  ARG197      0.0307
     58  CG        90.5260    6.1860   39.3430 C.3   197  ARG197      0.0489
     59  CD        91.3270    6.1570   38.0840 C.3   197  ARG197      0.2205
     60  NE        91.7590    7.5020   37.6540 N.pl3 197  ARG197     -0.0865
     61  CZ        92.8860    7.6190   36.9310 C.cat 197  ARG197      0.5346
     62  NH1       93.5480    6.4980   36.6580 N.pl3 197  ARG197      0.1354
     63  NH2       93.3200    8.7900   36.5240 N.pl3 197  ARG197      0.1354
     64  N         88.4990    1.1960   36.8960 N.3   213  ASN213     -0.1240
     65  CA        89.8820    1.4340   36.4080 C.3   213  ASN213      0.1653
     66  C         90.8070    1.4490   37.6070 C.2   213  ASN213      0.2266
     67  O         91.2160    2.5240   38.0390 O.2   213  ASN213     -0.2867
     68  CB        89.8510    2.8190   35.7260 C.3   213  ASN213      0.1155
     69  CG        91.1580    3.1040   35.0240 C.2   213  ASN213      0.2627
     70  OD1       91.9610    2.1740   34.8870 O.2   213  ASN213     -0.2716
     71  ND2       91.3240    4.3500   34.6030 N.am  213  ASN213     -0.0877
     72  N         93.6870   -0.6430   37.9810 N.3   215  GLY215     -0.1210
     73  CA        95.0460   -1.0770   37.7420 C.3   215  GLY215      0.1956
     74  C         95.8560   -0.3050   36.7350 C.2   215  GLY215      0.2613
     75  O         95.8930    0.9240   36.7140 O.2   215  GLY215     -0.2717
     76  N         96.5870   -1.0560   35.8980 N.am  216  SER216     -0.1938
     77  CA        97.4100   -0.4980   34.8420 C.3   216  SER216      0.2055
     78  C         96.5690   -0.2350   33.5750 C.2   216  SER216      0.2642
     79  O         95.4410   -0.7100   33.4810 O.2   216  SER216     -0.2714
     80  CB        98.5130   -1.4860   34.4520 C.3   216  SER216      0.2130
     81  OG        98.0200   -2.8180   34.4520 O.3   216  SER216     -0.2179
     82  N         97.1420    0.5030   32.6340 N.am  217  LEU217     -0.1977
     83  CA        96.4510    0.8000   31.3910 C.3   217  LEU217      0.1596
     84  C         96.0530   -0.5140   30.7200 C.2   217  LEU217      0.2287
     85  O         94.9360   -0.7310   30.2700 O.2   217  LEU217     -0.2864
     86  CB        97.3470    1.6160   30.4560 C.3   217  LEU217      0.0297
     87  CG        97.0020    3.1090   30.4070 C.3   217  LEU217      0.0022
     88  CD1       97.9590    3.8640   29.5120 C.3   217  LEU217      0.0001
     89  CD2       95.5520    3.2750   29.9440 C.3   217  LEU217      0.0001
     90  N         93.2470   -2.1580   32.1900 N.3   220  LEU220     -0.1245
     91  CA        92.0950   -1.4110   31.7750 C.3   220  LEU220      0.1561
     92  C         91.7280   -1.9570   30.3830 C.2   220  LEU220      0.2260
     93  O         90.5930   -2.2930   30.1580 O.2   220  LEU220     -0.2867
     94  CB        92.4030    0.0810   31.6680 C.3   220  LEU220      0.0270
     95  CG        91.2120    0.8680   31.0420 C.3   220  LEU220      0.0019
     96  CD1       90.0050    0.7080   31.9600 C.3   220  LEU220      0.0001
     97  CD2       91.5900    2.2840   30.7920 C.3   220  LEU220      0.0001
@<TRIPOS>BOND
     1    41    40    2
     2    49    48    2
     3    44    43   ar
     4    40    39    1
     5    40    46   am
     6    48    47    1
     7    47    46    1
     8    47    50    1
     9    39    42    1
    10    39    38    1
    11    43    42    1
    12    43    45   ar
    13    32    31    2
    14    52    50    1
    15    50    51    1
    16    38    31   am
    17    31    30    1
    18    36    37    1
    19    36    35    1
    20    34    35    1
    21    34    33    1
    22    88    87    1
    23    89    87    1
    24    30    33    1
    25    30    29    1
    26    93    92    2
    27    28    27    2
    28    85    84    2
    29    92    91    1
    30    87    86    1
    31    86    83    1
    32    84    83    1
    33    97    95    1
    34    29    27   am
    35    27    26    1
    36    95    94    1
    37    95    96    1
    38    83    82    1
    39    94    91    1
    40    91    90    1
    41    26    25    1
    42    82    78   am
    43    25    21   am
    44    79    78    2
    45    78    77    1
    46    24    23    1
    47     8     9    1
    48     4     3    2
    49    21    22    2
    50    21    20    1
    51    80    81    1
    52    80    77    1
    53     9    10    1
    54     9    12    1
    55     3     2    1
    56    71    69   am
    57     1     2    1
    58    19    10   am
    59    19    20    1
    60    77    76    1
    61    70    69    2
    62    10    11    2
    63     2     5    1
    64    69    68    1
    65    23    20    1
    66    13    12    1
    67    13    14    1
    68    68    65    1
    69    76    74   am
    70    65    64    1
    71    65    66    1
    72    14    15    1
    73     5     6    1
    74     5     7    1
    75    63    61    1
    76    62    61    1
    77    75    74    2
    78    74    73    1
    79    61    60    2
    80    15    16    2
    81    66    67    2
    82    60    59    1
    83    73    72    1
    84    59    58    1
    85    16    18    1
    86    16    17    1
    87    53    54    1
    88    57    58    1
    89    57    54    1
    90    54    55    1
    91    55    56    2
