@<TRIPOS>MOLECULE
tmp/1delA00.pdb
 188 177 0 0 0
SMALL
GASTEIGER

@<TRIPOS>ATOM
      1  N         47.6260   -7.1930    5.6090 N.3    10  LYS10      -0.1245
      2  CA        46.2340   -6.7250    5.6850 C.3    10  LYS10       0.1561
      3  C         45.2920   -7.8460    6.1290 C.2    10  LYS10       0.2260
      4  O         45.4930   -9.0170    5.8140 O.2    10  LYS10      -0.2867
      5  CB        45.8290   -6.1310    4.3390 C.3    10  LYS10       0.0271
      6  CG        46.5630   -4.8650    3.9380 C.3    10  LYS10       0.0035
      7  CD        45.6750   -3.6320    3.9940 C.3    10  LYS10       0.0206
      8  CE        46.4080   -2.3770    3.5300 C.3    10  LYS10       0.1093
      9  NZ        45.5070   -1.1840    3.4940 N.3    10  LYS10      -0.1314
     10  N         52.2520    6.3510   13.8440 N.3    31  GLN31      -0.1231
     11  CA        52.1760    5.6960   12.5220 C.3    31  GLN31       0.1698
     12  C         53.3690    6.1290   11.6860 C.2    31  GLN31       0.2592
     13  O         53.4900    7.3250   11.4350 O.2    31  GLN31      -0.2718
     14  CB        50.8640    6.0620   11.8030 C.3    31  GLN31       0.0381
     15  CG        49.6210    5.5350   12.4980 C.3    31  GLN31       0.0905
     16  CD        48.3290    5.8630   11.7610 C.2    31  GLN31       0.2608
     17  OE1       48.1000    6.9750   11.3120 O.2    31  GLN31      -0.2717
     18  NE2       47.4660    4.8550   11.6500 N.am   31  GLN31      -0.0878
     19  N         54.2090    5.2080   11.2680 N.am   32  LEU32      -0.1966
     20  CA        55.3290    5.5180   10.3850 C.3    32  LEU32       0.1728
     21  C         54.8660    6.2790    9.1250 C.2    32  LEU32       0.2616
     22  O         55.5430    7.2020    8.6710 O.2    32  LEU32      -0.2715
     23  CB        56.0760    4.2560   10.0070 C.3    32  LEU32       0.0311
     24  CG        56.9140    3.5080   11.0290 C.3    32  LEU32       0.0022
     25  CD1       57.5750    2.2790   10.3890 C.3    32  LEU32       0.0001
     26  CD2       58.0150    4.3990   11.5740 C.3    32  LEU32       0.0001
     27  N         53.7060    5.9290    8.5810 N.am   33  ALA33      -0.1977
     28  CA        53.0940    6.5240    7.4250 C.3    33  ALA33       0.1597
     29  C         52.3300    7.7990    7.7330 C.2    33  ALA33       0.2287
     30  O         51.7380    8.4060    6.8530 O.2    33  ALA33      -0.2864
     31  CB        52.1040    5.5440    6.7820 C.3    33  ALA33       0.0319
     32  N         53.5700   10.8520    5.8410 N.3    36  ILE36      -0.1231
     33  CA        53.3740   10.6440    4.4240 C.3    36  ILE36       0.1692
     34  C         51.9870   11.2260    4.0540 C.2    36  ILE36       0.2591
     35  O         51.7890   12.0770    3.1980 O.2    36  ILE36      -0.2718
     36  CB        53.3680    9.1380    4.0780 C.3    36  ILE36       0.0266
     37  CG1       54.7860    8.5710    4.1940 C.3    36  ILE36       0.0019
     38  CG2       52.8530    8.9870    2.6490 C.3    36  ILE36       0.0020
     39  CD1       54.9030    7.0790    4.0830 C.3    36  ILE36       0.0001
     40  N         51.0070   10.7970    4.8490 N.am   37  LYS37      -0.1980
     41  CA        49.6500   11.2940    4.7230 C.3    37  LYS37       0.1596
     42  C         49.6220   12.7620    5.0030 C.2    37  LYS37       0.2287
     43  O         48.9520   13.5280    4.2920 O.2    37  LYS37      -0.2864
     44  CB        48.6690   10.4770    5.5440 C.3    37  LYS37       0.0298
     45  CG        48.6490    9.0210    5.0240 C.3    37  LYS37       0.0038
     46  CD        47.6630    8.1940    5.8340 C.3    37  LYS37       0.0206
     47  CE        48.3850    7.7780    7.1340 C.3    37  LYS37       0.1093
     48  NZ        47.6110    6.7220    7.8480 N.3    37  LYS37      -0.1314
     49  N         43.4740    9.6020    5.4100 N.3    62  GLU62      -0.1245
     50  CA        43.3690    8.6210    6.4830 C.3    62  GLU62       0.1567
     51  C         42.4020    7.5070    6.0950 C.2    62  GLU62       0.2260
     52  O         42.3170    6.4990    6.7820 O.2    62  GLU62      -0.2867
     53  CB        42.9500    9.2530    7.7950 C.3    62  GLU62       0.0388
     54  CG        43.2450    8.4250    9.0230 C.3    62  GLU62       0.1160
     55  CD        44.6500    7.8880    9.1650 C.2    62  GLU62       0.3649
     56  OE1       45.6050    8.6100    8.8290 O.co2  62  GLU62      -0.2457
     57  OE2       44.8270    6.7210    9.6270 O.co2  62  GLU62      -0.2457
     58  N         40.5230    4.9670   -0.7930 N.3    68  ARG68      -0.1245
     59  CA        41.8090    5.3980   -1.2890 C.3    68  ARG68       0.1563
     60  C         42.2710    4.7240   -2.5360 C.2    68  ARG68       0.2260
     61  O         43.3930    4.9470   -2.9780 O.2    68  ARG68      -0.2867
     62  CB        42.8110    5.2450   -0.1020 C.3    68  ARG68       0.0307
     63  CG        42.4350    6.3560    0.9060 C.3    68  ARG68       0.0489
     64  CD        43.3350    6.3700    2.0950 C.3    68  ARG68       0.2205
     65  NE        43.2080    5.1150    2.8450 N.pl3  68  ARG68      -0.0865
     66  CZ        43.8780    4.8760    3.9770 C.cat  68  ARG68       0.5346
     67  NH1       44.7220    5.7570    4.5080 N.pl3  68  ARG68       0.1354
     68  NH2       43.6650    3.7110    4.5610 N.pl3  68  ARG68       0.1354
     69  N         45.8840    5.9050   -2.4490 N.3   132  ARG132     -0.1245
     70  CA        46.7600    4.8100   -2.1020 C.3   132  ARG132      0.1563
     71  C         48.0420    4.7240   -2.9170 C.2   132  ARG132      0.2260
     72  O         49.1170    4.4490   -2.3020 O.2   132  ARG132     -0.2867
     73  CB        46.0200    3.4770   -2.1390 C.3   132  ARG132      0.0307
     74  CG        46.9180    2.2490   -2.1790 C.3   132  ARG132      0.0489
     75  CD        47.2550    1.6910   -0.8230 C.3   132  ARG132      0.2205
     76  NE        46.0950    1.4140   -0.0070 N.pl3 132  ARG132     -0.0865
     77  CZ        46.0320    1.3840    1.3170 C.cat 132  ARG132      0.5346
     78  NH1       47.0880    1.6130    2.0850 N.pl3 132  ARG132      0.1354
     79  NH2       44.8280    1.1280    1.8360 N.pl3 132  ARG132      0.1354
     80  N         50.6590    7.3870   -1.8780 N.3   135  MET135     -0.1230
     81  CA        51.2570    7.1160   -0.5880 C.3   135  MET135      0.1702
     82  C         52.4550    6.1890   -0.7630 C.2   135  MET135      0.2592
     83  O         53.5450    6.3930   -0.2390 O.2   135  MET135     -0.2718
     84  CB        50.2240    6.4720    0.3500 C.3   135  MET135      0.0401
     85  CG        49.3530    7.5580    1.0190 C.3   135  MET135      0.0596
     86  SD        48.2750    6.8560    2.2780 S.3   135  MET135     -0.1393
     87  CE        47.6250    5.4180    1.5100 C.3   135  MET135      0.0692
     88  N         52.2330    5.1520   -1.5570 N.am  136  GLN136     -0.1979
     89  CA        53.2720    4.2220   -1.9060 C.3   136  GLN136      0.1601
     90  C         54.3590    4.8850   -2.7290 C.2   136  GLN136      0.2287
     91  O         55.5380    4.5890   -2.4970 O.2   136  GLN136     -0.2864
     92  CB        52.7300    3.0050   -2.6090 C.3   136  GLN136      0.0394
     93  CG        51.6410    2.3060   -1.7350 C.3   136  GLN136      0.0908
     94  CD        51.1030    1.1530   -2.6150 C.2   136  GLN136      0.2608
     95  OE1       51.2210    1.2660   -3.8460 O.2   136  GLN136     -0.2717
     96  NE2       50.6110    0.0910   -2.0040 N.am  136  GLN136     -0.0878
     97  N         56.2830    7.5080   -0.2110 N.3   139  GLY139     -0.1210
     98  CA        57.0090    6.7830    0.8080 C.3   139  GLY139      0.1956
     99  C         58.0640    5.8300    0.3480 C.2   139  GLY139      0.2612
    100  O         59.2100    5.8930    0.8120 O.2   139  GLY139     -0.2717
    101  N         57.7190    4.8990   -0.5550 N.am  140  THR140     -0.1952
    102  CA        58.6180    3.8960   -1.0440 C.3   140  THR140      0.1897
    103  C         59.3100    4.1230   -2.3630 C.2   140  THR140      0.2313
    104  O         60.5370    3.9830   -2.4690 O.2   140  THR140     -0.2863
    105  CB        57.8650    2.5310   -1.2010 C.3   140  THR140      0.1794
    106  OG1       57.1100    2.2670   -0.0410 O.3   140  THR140     -0.2208
    107  CG2       58.8620    1.4470   -1.4850 C.3   140  THR140      0.0378
    108  N         62.1590    6.1080    0.3480 N.3   144  VAL144     -0.1245
    109  CA        62.9500    4.9340    0.7360 C.3   144  VAL144      0.1561
    110  C         63.8590    4.4850   -0.3720 C.2   144  VAL144      0.2260
    111  O         65.0420    4.2750   -0.2330 O.2   144  VAL144     -0.2867
    112  CB        62.0370    3.7900    1.1960 C.3   144  VAL144      0.0252
    113  CG1       62.7630    2.4580    1.2400 C.3   144  VAL144      0.0019
    114  CG2       61.4060    4.1290    2.5370 C.3   144  VAL144      0.0019
    115  N         61.5400    7.3830    7.3910 N.3   152  TRP152     -0.1241
    116  CA        60.3590    7.3020    8.2200 C.3   152  TRP152      0.1605
    117  C         60.6610    6.8120    9.6270 C.2   152  TRP152      0.2264
    118  O         59.8690    7.0690   10.5190 O.2   152  TRP152     -0.2867
    119  CB        59.2870    6.3790    7.5710 C.3   152  TRP152      0.0550
    120  CG        59.1270    6.7940    6.1170 C.ar  152  TRP152      0.0003
    121  CD1       59.4630    6.0600    5.0220 C.ar  152  TRP152      0.0946
    122  CD2       58.6680    8.0570    5.6400 C.ar  152  TRP152      0.0152
    123  NE1       59.2640    6.7960    3.8960 N.ar  152  TRP152     -0.2442
    124  CE2       58.7450    8.0070    4.2240 C.ar  152  TRP152      0.0810
    125  CE3       58.1560    9.2140    6.2310 C.ar  152  TRP152      0.0012
    126  CZ2       58.3880    9.0910    3.4110 C.ar  152  TRP152      0.0191
    127  CZ3       57.7730   10.2720    5.4190 C.ar  152  TRP152      0.0001
    128  CH2       57.8890   10.2030    4.0160 C.ar  152  TRP152      0.0015
    129  N         52.1430    0.2460   11.8950 N.3   175  ASP175     -0.1225
    130  CA        52.2350    0.0700   10.4640 C.3   175  ASP175      0.1805
    131  C         53.5430   -0.1520    9.8170 C.2   175  ASP175      0.2598
    132  O         53.6750    0.2350    8.6380 O.2   175  ASP175     -0.2718
    133  CB        51.4800    1.2910    9.8360 C.3   175  ASP175      0.1424
    134  CG        52.2000    2.5690   10.1650 C.2   175  ASP175      0.3668
    135  OD1       53.0270    2.5640   11.1050 O.co2 175  ASP175     -0.2456
    136  OD2       51.9680    3.5890    9.5060 O.co2 175  ASP175     -0.2456
    137  N         54.5240   -0.7880   10.3980 N.am  176  THR176     -0.1939
    138  CA        55.8060   -1.0010    9.7190 C.3   176  THR176      0.2028
    139  C         55.6330   -1.9730    8.5650 C.2   176  THR176      0.2642
    140  O         54.9980   -3.0010    8.7650 O.2   176  THR176     -0.2714
    141  CB        56.8270   -1.5610   10.7420 C.3   176  THR176      0.1808
    142  OG1       57.0530   -0.5280   11.7080 O.3   176  THR176     -0.2208
    143  CG2       58.1380   -1.8940   10.0650 C.3   176  THR176      0.0379
    144  N         56.2070   -1.6950    7.4080 N.am  177  ARG177     -0.1963
    145  CA        56.0700   -2.5030    6.2400 C.3   177  ARG177      0.1729
    146  C         57.3720   -2.9230    5.5970 C.2   177  ARG177      0.2616
    147  O         57.3210   -3.7420    4.6840 O.2   177  ARG177     -0.2715
    148  CB        55.2510   -1.7750    5.1510 C.3   177  ARG177      0.0348
    149  CG        53.7820   -2.1650    5.1890 C.3   177  ARG177      0.0492
    150  CD        52.9110   -0.9200    5.1310 C.3   177  ARG177      0.2205
    151  NE        51.5070   -1.2500    4.9890 N.pl3 177  ARG177     -0.0865
    152  CZ        50.4910   -0.6040    5.5440 C.cat 177  ARG177      0.5346
    153  NH1       50.6730    0.4480    6.3250 N.pl3 177  ARG177      0.1354
    154  NH2       49.2520   -1.0290    5.2880 N.pl3 177  ARG177      0.1354
    155  N         58.4770   -2.3840    6.0720 N.am  178  GLN178     -0.1977
    156  CA        59.7590   -2.7790    5.4820 C.3   178  GLN178      0.1601
    157  C         60.6320   -3.4290    6.5450 C.2   178  GLN178      0.2287
    158  O         60.6820   -3.0320    7.6980 O.2   178  GLN178     -0.2864
    159  CB        60.4430   -1.5890    4.8560 C.3   178  GLN178      0.0394
    160  CG        59.5500   -0.6310    4.1090 C.3   178  GLN178      0.0908
    161  CD        59.8130   -0.6620    2.6160 C.2   178  GLN178      0.2608
    162  OE1       60.4800   -1.5590    2.1150 O.2   178  GLN178     -0.2717
    163  NE2       59.2870    0.3280    1.9030 N.am  178  GLN178     -0.0878
    164  N         63.1550   -1.4680    8.5220 N.3   181  GLU181     -0.1245
    165  CA        62.5360   -0.6210    9.5250 C.3   181  GLU181      0.1567
    166  C         62.3330   -1.4510   10.7920 C.2   181  GLU181      0.2260
    167  O         62.4570   -0.9660   11.9080 O.2   181  GLU181     -0.2867
    168  CB        61.2410   -0.0020    8.9660 C.3   181  GLU181      0.0388
    169  CG        61.4500    0.9010    7.7570 C.3   181  GLU181      0.1160
    170  CD        60.2340    1.5120    7.1070 C.2   181  GLU181      0.3649
    171  OE1       59.1250    0.9580    7.2680 O.co2 181  GLU181     -0.2457
    172  OE2       60.3520    2.5890    6.4050 O.co2 181  GLU181     -0.2457
    173  N         55.3350   -3.1280    0.6820 N.3   208  THR208     -0.1203
    174  CA        54.7030   -2.4830    1.8010 C.3   208  THR208      0.1994
    175  C         53.3240   -3.1410    2.0360 C.2   208  THR208      0.2617
    176  O         52.5130   -2.7030    2.8340 O.2   208  THR208     -0.2717
    177  CB        54.5020   -0.9710    1.5640 C.3   208  THR208      0.1784
    178  OG1       53.4050   -0.6960    0.6850 O.3   208  THR208     -0.2211
    179  CG2       55.7690   -0.3710    0.9530 C.3   208  THR208      0.0376
    180  N         53.1090   -4.2270    1.2940 N.am  209  GLU209     -0.1979
    181  CA        51.8900   -5.0210    1.3200 C.3   209  GLU209      0.1602
    182  C         52.1550   -6.5090    1.5260 C.2   209  GLU209      0.2287
    183  O         51.2710   -7.3690    1.5600 O.2   209  GLU209     -0.2864
    184  CB        51.1240   -4.7590    0.0070 C.3   209  GLU209      0.0415
    185  CG        50.9650   -3.2640   -0.2690 C.3   209  GLU209      0.1163
    186  CD        50.3230   -2.5060    0.8760 C.2   209  GLU209      0.3649
    187  OE1       49.3410   -3.0100    1.4730 O.co2 209  GLU209     -0.2457
    188  OE2       50.7830   -1.3760    1.1920 O.co2 209  GLU209     -0.2457
@<TRIPOS>BOND
     1    95    94    2
     2    61    60    2
     3    71    72    2
     4    71    70    1
     5    90    91    2
     6    90    89    1
     7    94    96   am
     8    94    93    1
     9    92    89    1
    10    92    93    1
    11    60    59    1
    12   104   103    2
    13    69    70    1
    14   103   102    1
    15    74    73    1
    16    74    75    1
    17    73    70    1
    18    89    88    1
    19    80    81    1
    20    88    82   am
    21   107   105    1
    22    59    58    1
    23    59    62    1
    24   105   102    1
    25   105   106    1
    26   102   101    1
    27    75    76    1
    28    82    81    1
    29    82    83    2
    30    81    84    1
    31   101    99   am
    32   110   111    2
    33   110   109    1
    34   185   184    1
    35   185   186    1
    36    97    98    1
    37    62    63    1
    38    76    77    2
    39   184   181    1
    40   108   109    1
    41    99    98    1
    42    99   100    2
    43    84    85    1
    44   173   174    1
    45   178   177    1
    46   109   112    1
    47   186   188   ar
    48   186   187   ar
    49    63    64    1
    50   179   177    1
    51    85    86    1
    52   112   113    1
    53   112   114    1
    54   180   181    1
    55   180   175   am
    56    77    79    1
    57    77    78    1
    58   181   182    1
    59    87    86    1
    60   182   183    2
    61   177   174    1
    62   174   175    1
    63   163   161   am
    64   175   176    2
    65    64    65    1
    66   162   161    2
    67   161   160    1
    68    38    36    1
    69    65    66    2
    70    35    34    2
    71   126   128   ar
    72   126   124   ar
    73     9     8    1
    74     8     7    1
    75   123   124   ar
    76   123   121   ar
    77     6     7    1
    78     6     5    1
    79    66    67    1
    80    66    68    1
    81   128   127   ar
    82    34    33    1
    83    34    40   am
    84    36    37    1
    85    36    33    1
    86    39    37    1
    87   160   159    1
    88   124   122   ar
    89    43    42    2
    90     5     2    1
    91    33    32    1
    92   147   146    2
    93    41    40    1
    94    41    42    1
    95    41    44    1
    96   159   156    1
    97   151   150    1
    98   151   152    2
    99   121   120   ar
   100    45    44    1
   101    45    46    1
   102   150   149    1
   103   148   149    1
   104   148   145    1
   105   154   152    1
   106    49    50    1
   107   127   125   ar
   108   156   155    1
   109   156   157    1
   110   152   153    1
   111   146   155   am
   112   146   145    1
   113     1     2    1
   114   122   120   ar
   115   122   125   ar
   116     2     3    1
   117     4     3    2
   118    46    47    1
   119    51    50    1
   120    51    52    2
   121   120   119    1
   122   145   144    1
   123   172   170   ar
   124    50    53    1
   125   157   158    2
   126    31    28    1
   127    30    29    2
   128   170   171   ar
   129   170   169    1
   130    47    48    1
   131   115   116    1
   132   144   139   am
   133    28    29    1
   134    28    27    1
   135   119   116    1
   136   169   168    1
   137    53    54    1
   138   116   117    1
   139   164   165    1
   140   139   140    2
   141   139   138    1
   142    27    21   am
   143   132   131    2
   144    22    21    2
   145    56    55   ar
   146   168   165    1
   147    54    55    1
   148    21    20    1
   149    55    57   ar
   150   136   134   ar
   151   165   166    1
   152   117   118    2
   153   138   137    1
   154   138   141    1
   155   131   137   am
   156   131   130    1
   157   133   134    1
   158   133   130    1
   159    23    20    1
   160    23    24    1
   161   143   141    1
   162   134   135   ar
   163    20    19    1
   164    25    24    1
   165   130   129    1
   166   141   142    1
   167   166   167    2
   168    24    26    1
   169    19    12   am
   170    17    16    2
   171    13    12    2
   172    18    16   am
   173    12    11    1
   174    16    15    1
   175    14    15    1
   176    14    11    1
   177    11    10    1
