@<TRIPOS>MOLECULE
tmp/1df7A01.pdb
 193 189 0 0 0
SMALL
GASTEIGER

@<TRIPOS>ATOM
      1  N          6.9460   18.8910    5.4510 N.3     5  ILE5       -0.1231
      2  CA         6.8730   20.3370    5.2060 C.3     5  ILE5        0.1692
      3  C          7.7500   21.0480    6.2430 C.2     5  ILE5        0.2592
      4  O          7.6850   20.7560    7.4350 O.2     5  ILE5       -0.2718
      5  CB         5.4290   20.8470    5.2350 C.3     5  ILE5        0.0266
      6  CG1        5.4000   22.3590    5.0040 C.3     5  ILE5        0.0019
      7  CG2        4.7680   20.4870    6.5390 C.3     5  ILE5        0.0020
      8  CD1        4.0010   22.9090    4.7740 C.3     5  ILE5        0.0001
      9  N          8.6440   21.9160    5.7790 N.am    6  TRP6       -0.1962
     10  CA         9.5300   22.6470    6.6880 C.3     6  TRP6        0.1771
     11  C          9.9950   23.9840    6.0480 C.2     6  TRP6        0.2619
     12  O          9.8760   24.1740    4.8290 O.2     6  TRP6       -0.2715
     13  CB        10.7730   21.7870    7.0280 C.3     6  TRP6        0.0590
     14  CG        11.8410   21.6660    5.9220 C.ar    6  TRP6        0.0006
     15  CD1       12.8500   22.5550    5.6480 C.ar    6  TRP6        0.0946
     16  CD2       12.0410   20.5560    5.0320 C.ar    6  TRP6        0.0152
     17  NE1       13.6780   22.0570    4.6420 N.ar    6  TRP6       -0.2442
     18  CE2       13.1990   20.8350    4.2500 C.ar    6  TRP6        0.0810
     19  CE3       11.3690   19.3400    4.8280 C.ar    6  TRP6        0.0012
     20  CZ2       13.6890   19.9420    3.2860 C.ar    6  TRP6        0.0191
     21  CZ3       11.8570   18.4550    3.8690 C.ar    6  TRP6        0.0001
     22  CH2       13.0140   18.7690    3.1080 C.ar    6  TRP6        0.0015
     23  N         10.5320   24.8750    6.8820 N.am    7  ALA7       -0.1977
     24  CA        11.0810   26.1750    6.4520 C.3     7  ALA7        0.1597
     25  C         12.5390   26.1240    6.9300 C.2     7  ALA7        0.2287
     26  O         12.8110   25.7870    8.0900 O.2     7  ALA7       -0.2864
     27  CB        10.3460   27.3350    7.1240 C.3     7  ALA7        0.0319
     28  N         12.3070   28.4260   16.0780 N.3    20  ILE20      -0.1245
     29  CA        12.6410   28.6800   14.6820 C.3    20  ILE20       0.1561
     30  C         13.2950   30.0710   14.7500 C.2    20  ILE20       0.2260
     31  O         12.6680   31.0270   15.1930 O.2    20  ILE20      -0.2867
     32  CB        11.3880   28.6340   13.7890 C.3    20  ILE20       0.0252
     33  CG1       10.8530   27.2030   13.7620 C.3    20  ILE20       0.0019
     34  CG2       11.7140   29.1010   12.4080 C.3    20  ILE20       0.0019
     35  CD1        9.5290   27.0580   13.1170 C.3    20  ILE20       0.0001
     36  N          5.7050   35.2630    9.0280 N.3    25  PRO25      -0.2116
     37  CA         4.2750   34.9490    9.1060 C.3    25  PRO25       0.1372
     38  C          3.6660   34.3870    7.8050 C.2    25  PRO25       0.2244
     39  O          2.7950   33.5310    7.8570 O.2    25  PRO25      -0.2868
     40  CB         3.6530   36.2740    9.5620 C.3    25  PRO25       0.0268
     41  CG         4.5950   37.2860    9.0980 C.3    25  PRO25       0.0207
     42  CD         5.9590   36.6820    9.3250 C.3    25  PRO25       0.0892
     43  N          5.0530   32.3650    5.8380 N.3    27  ASP27      -0.1225
     44  CA         5.3580   30.9400    5.7960 C.3    27  ASP27       0.1805
     45  C          4.3630   30.1700    6.6750 C.2    27  ASP27       0.2598
     46  O          3.9910   29.0390    6.3600 O.2    27  ASP27      -0.2718
     47  CB         6.7990   30.6460    6.1990 C.3    27  ASP27       0.1424
     48  CG         7.0490   29.1620    6.3780 C.2    27  ASP27       0.3668
     49  OD1        6.9500   28.4120    5.3890 O.co2  27  ASP27      -0.2456
     50  OD2        7.2750   28.7640    7.5380 O.co2  27  ASP27      -0.2456
     51  N          3.9080   30.7870    7.7580 N.am   28  GLN28      -0.1965
     52  CA         2.9220   30.1330    8.6010 C.3    28  GLN28       0.1733
     53  C          1.5910   29.9800    7.8850 C.2    28  GLN28       0.2616
     54  O          0.8970   28.9640    8.0300 O.2    28  GLN28      -0.2715
     55  CB         2.7340   30.8960    9.8820 C.3    28  GLN28       0.0408
     56  CG         3.8430   30.6480   10.8380 C.3    28  GLN28       0.0908
     57  CD         3.5310   31.2390   12.1550 C.2    28  GLN28       0.2608
     58  OE1        2.4250   31.7590   12.3570 O.2    28  GLN28      -0.2717
     59  NE2        4.4750   31.1610   13.0850 N.am   28  GLN28      -0.0878
     60  N          1.2640   30.9680    7.0550 N.am   29  ALA29      -0.1963
     61  CA         0.0250   30.9350    6.2840 C.3    29  ALA29       0.1728
     62  C          0.1100   29.7780    5.2760 C.2    29  ALA29       0.2616
     63  O         -0.8370   29.0330    5.0860 O.2    29  ALA29      -0.2715
     64  CB        -0.1840   32.3030    5.5570 C.3    29  ALA29       0.0334
     65  N          1.2570   29.6540    4.6280 N.am   30  HIS30      -0.1959
     66  CA         1.5300   28.6070    3.6500 C.3    30  HIS30       0.1787
     67  C          1.4110   27.2310    4.3310 C.2    30  HIS30       0.2620
     68  O          0.7950   26.3020    3.7980 O.2    30  HIS30      -0.2715
     69  CB         2.9520   28.8160    3.1040 C.3    30  HIS30       0.0785
     70  CG         3.4480   27.6910    2.2520 C.ar   30  HIS30       0.0821
     71  ND1        2.8820   27.3720    1.0360 N.ar   30  HIS30      -0.2267
     72  CD2        4.4760   26.8270    2.4280 C.ar   30  HIS30       0.1154
     73  CE1        3.5440   26.3640    0.4950 C.ar   30  HIS30       0.1986
     74  NE2        4.5170   26.0170    1.3180 N.ar   30  HIS30      -0.2212
     75  N          2.0130   27.1290    5.5090 N.am   31  PHE31      -0.1960
     76  CA         1.9860   25.9030    6.3030 C.3    31  PHE31       0.1771
     77  C          0.5230   25.4930    6.5530 C.2    31  PHE31       0.2619
     78  O          0.1270   24.3380    6.3110 O.2    31  PHE31      -0.2715
     79  CB         2.7420   26.1450    7.6210 C.3    31  PHE31       0.0574
     80  CG         2.5100   25.0920    8.6670 C.ar   31  PHE31      -0.0200
     81  CD1        3.2560   23.9170    8.6660 C.ar   31  PHE31      -0.0042
     82  CD2        1.5540   25.2820    9.6610 C.ar   31  PHE31      -0.0042
     83  CE1        3.0610   22.9520    9.6290 C.ar   31  PHE31      -0.0003
     84  CE2        1.3440   24.3180   10.6480 C.ar   31  PHE31      -0.0003
     85  CZ         2.0980   23.1490   10.6340 C.ar   31  PHE31      -0.0000
     86  N         -0.2910   26.4730    6.9580 N.am   32  ARG32      -0.1977
     87  CA        -1.7070   26.2490    7.2290 C.3    32  ARG32       0.1597
     88  C         -2.4180   25.7680    5.9830 C.2    32  ARG32       0.2287
     89  O         -3.1650   24.7840    6.0260 O.2    32  ARG32      -0.2864
     90  CB        -2.3490   27.5340    7.7380 C.3    32  ARG32       0.0334
     91  CG        -3.8190   27.3770    8.0070 C.3    32  ARG32       0.0492
     92  CD        -4.4440   28.6900    8.3840 C.3    32  ARG32       0.2205
     93  NE        -5.9010   28.5390    8.4310 N.pl3  32  ARG32      -0.0865
     94  CZ        -6.6340   28.2420    9.5200 C.cat  32  ARG32       0.5346
     95  NH1       -6.0660   28.0520   10.7260 N.pl3  32  ARG32       0.1354
     96  NH2       -7.9640   28.1290    9.3970 N.pl3  32  ARG32       0.1354
     97  N          8.7730   19.3480   18.8500 N.3    46  THR46      -0.1218
     98  CA         8.0280   20.2560   17.9930 C.3    46  THR46       0.1862
     99  C          6.6770   20.5590   18.6330 C.2    46  THR46       0.2287
    100  O          6.2570   21.6820   18.6300 O.2    46  THR46      -0.2866
    101  CB         7.8860   19.7020   16.5650 C.3    46  THR46       0.1770
    102  OG1        9.1850   19.7210   15.9490 O.3    46  THR46      -0.2211
    103  CG2        6.9270   20.5910   15.7240 C.3    46  THR46       0.0375
    104  N          7.0930   23.1080   21.2880 N.3    49  SER49      -0.1202
    105  CA         7.3700   24.4120   20.7020 C.3    49  SER49       0.2020
    106  C          6.1560   25.1410   20.1460 C.2    49  SER49       0.2619
    107  O          6.2560   26.3180   19.8220 O.2    49  SER49      -0.2717
    108  CB         8.4310   24.3060   19.6000 C.3    49  SER49       0.2103
    109  OG         7.8870   23.7940   18.3940 O.3    49  SER49      -0.2182
    110  N          5.0320   24.4500   19.9570 N.am   50  LEU50      -0.1966
    111  CA         3.8440   25.1310   19.4090 C.3    50  LEU50       0.1713
    112  C          3.3050   26.1420   20.4150 C.2    50  LEU50       0.2458
    113  O          3.3280   25.8920   21.6170 O.2    50  LEU50      -0.2730
    114  CB         2.7200   24.1300   19.0550 C.3    50  LEU50       0.0310
    115  CG         2.9790   23.1690   17.8890 C.3    50  LEU50       0.0022
    116  CD1        1.8190   22.2050   17.7790 C.3    50  LEU50       0.0001
    117  CD2        3.1850   23.9080   16.5980 C.3    50  LEU50       0.0001
    118  N          2.9300   27.3370   19.9510 N.am   51  PRO51      -0.2727
    119  CA         2.3950   28.2690   20.9380 C.3    51  PRO51       0.1402
    120  C          1.1060   27.6190   21.4730 C.2    51  PRO51       0.2269
    121  O          0.3870   26.9120   20.7480 O.2    51  PRO51      -0.2865
    122  CB         2.0830   29.5100   20.0990 C.3    51  PRO51       0.0296
    123  CG         3.0290   29.4370   18.9800 C.3    51  PRO51       0.0237
    124  CD         3.0490   27.9680   18.6280 C.3    51  PRO51       0.0939
    125  N         -1.7950   28.6870   22.0380 N.3    53  LYS53      -0.1231
    126  CA        -3.0380   29.0020   21.3420 C.3    53  LYS53       0.1693
    127  C         -3.3060   28.1270   20.1110 C.2    53  LYS53       0.2591
    128  O         -4.4470   28.0350   19.6540 O.2    53  LYS53      -0.2718
    129  CB        -3.1440   30.4970   21.0380 C.3    53  LYS53       0.0285
    130  CG        -1.9470   31.0980   20.3460 C.3    53  LYS53       0.0035
    131  CD        -2.0460   32.6390   20.2620 C.3    53  LYS53       0.0206
    132  CE        -0.8690   33.2240   19.4370 C.3    53  LYS53       0.1093
    133  NZ        -0.8940   32.6500   18.0450 N.3    53  LYS53      -0.1314
    134  N         -2.2750   27.4510   19.6050 N.am   54  VAL54      -0.1980
    135  CA        -2.4690   26.5630   18.4670 C.3    54  VAL54       0.1595
    136  C         -1.9000   25.1970   18.7530 C.2    54  VAL54       0.2287
    137  O         -1.3610   24.5420   17.8710 O.2    54  VAL54      -0.2864
    138  CB        -1.8470   27.1010   17.1830 C.3    54  VAL54       0.0276
    139  CG1       -2.5870   28.3310   16.7310 C.3    54  VAL54       0.0022
    140  CG2       -0.3570   27.3940   17.4000 C.3    54  VAL54       0.0022
    141  N         -2.9020   22.1110   16.7290 N.3    57  LEU57      -0.1231
    142  CA        -3.1880   22.9450   15.5770 C.3    57  LEU57       0.1678
    143  C         -4.5980   22.6160   15.1650 C.2    57  LEU57       0.2434
    144  O         -4.9280   21.4560   14.9440 O.2    57  LEU57      -0.2733
    145  CB        -2.1890   22.6620   14.4520 C.3    57  LEU57       0.0284
    146  CG        -0.8540   23.3440   14.7410 C.3    57  LEU57       0.0019
    147  CD1        0.2620   22.6940   13.9620 C.3    57  LEU57       0.0001
    148  CD2       -0.9620   24.8350   14.4170 C.3    57  LEU57       0.0001
    149  N         -5.4650   23.6320   15.0710 N.am   58  PRO58      -0.2729
    150  CA        -6.8630   23.4020   14.6930 C.3    58  PRO58       0.1401
    151  C         -7.1080   22.9370   13.2870 C.2    58  PRO58       0.2269
    152  O         -6.3820   23.2900   12.3620 O.2    58  PRO58      -0.2865
    153  CB        -7.5280   24.7610   14.9680 C.3    58  PRO58       0.0296
    154  CG        -6.4200   25.7390   14.6890 C.3    58  PRO58       0.0237
    155  CD        -5.2200   25.0560   15.3570 C.3    58  PRO58       0.0939
    156  N         -6.7980   19.9620   12.1230 N.3    60  ARG60      -0.1245
    157  CA        -5.8920   18.8830   11.7340 C.3    60  ARG60       0.1563
    158  C         -5.8220   17.8410   12.8440 C.2    60  ARG60       0.2260
    159  O         -6.0230   18.1690   14.0080 O.2    60  ARG60      -0.2867
    160  CB        -4.4960   19.4530   11.5080 C.3    60  ARG60       0.0307
    161  CG        -4.3310   20.1320   10.1480 C.3    60  ARG60       0.0489
    162  CD        -3.3980   21.3370   10.2030 C.3    60  ARG60       0.2205
    163  NE        -3.9680   22.4410   10.9630 N.pl3  60  ARG60      -0.0865
    164  CZ        -3.4720   23.6690   11.0090 C.cat  60  ARG60       0.5346
    165  NH1       -2.3750   23.9700   10.3320 N.pl3  60  ARG60       0.1354
    166  NH2       -4.0760   24.6020   11.7500 N.pl3  60  ARG60       0.1354
    167  N          5.5080   17.5510   10.1880 N.3    94  ILE94      -0.1245
    168  CA         5.7910   18.9690   10.3800 C.3    94  ILE94       0.1561
    169  C          6.9680   19.2940   11.2930 C.2    94  ILE94       0.2260
    170  O          7.1330   20.4440   11.7270 O.2    94  ILE94      -0.2867
    171  CB         4.5220   19.6990   10.8770 C.3    94  ILE94       0.0252
    172  CG1        4.1850   19.2700   12.3180 C.3    94  ILE94       0.0019
    173  CG2        3.3500   19.3500    9.9550 C.3    94  ILE94       0.0019
    174  CD1        3.4800   20.3550   13.1430 C.3    94  ILE94       0.0001
    175  N         11.9620   14.4560   10.8220 N.3   100  TYR100     -0.1241
    176  CA        12.1270   14.5960    9.3660 C.3   100  TYR100      0.1605
    177  C         13.0790   13.4970    8.8870 C.2   100  TYR100      0.2264
    178  O         12.8480   12.8780    7.8630 O.2   100  TYR100     -0.2867
    179  CB        12.7300   15.9590    8.9890 C.3   100  TYR100      0.0534
    180  CG        11.7940   17.1730    9.0800 C.ar  100  TYR100     -0.0201
    181  CD1       12.2580   18.3910    9.6010 C.ar  100  TYR100     -0.0009
    182  CD2       10.4650   17.1080    8.6610 C.ar  100  TYR100     -0.0009
    183  CE1       11.4410   19.5030    9.7130 C.ar  100  TYR100      0.0417
    184  CE2        9.6310   18.2420    8.7760 C.ar  100  TYR100      0.0417
    185  CZ        10.1350   19.4250    9.3090 C.ar  100  TYR100      0.1957
    186  OH         9.3230   20.5330    9.4850 O.3   100  TYR100     -0.2866
    187  N         10.2240   25.7670    2.2990 N.3   113  THR113     -0.1218
    188  CA        10.2880   27.2170    2.2400 C.3   113  THR113      0.1862
    189  C         11.7490   27.5390    2.5020 C.2   113  THR113      0.2287
    190  O         12.3040   27.1190    3.5350 O.2   113  THR113     -0.2866
    191  CB         9.4430   27.8610    3.3310 C.3   113  THR113      0.1770
    192  OG1        8.0570   27.5450    3.1090 O.3   113  THR113     -0.2211
    193  CG2        9.6380   29.4020    3.3310 C.3   113  THR113      0.0375
@<TRIPOS>BOND
     1    73    71   ar
     2    73    74   ar
     3    71    70   ar
     4    74    72   ar
     5   188   187    1
     6   188   189    1
     7   188   191    1
     8    70    72   ar
     9    70    69    1
    10   189   190    2
    11    69    66    1
    12    22    20   ar
    13    22    21   ar
    14   192   191    1
    15    20    18   ar
    16   191   193    1
    17    66    67    1
    18    66    65    1
    19    68    67    2
    20    21    19   ar
    21    18    17   ar
    22    18    16   ar
    23    67    75   am
    24    65    62   am
    25    17    15   ar
    26     8     6    1
    27    19    16   ar
    28    12    11    2
    29     6     5    1
    30    16    14   ar
    31    63    62    2
    32     2     5    1
    33     2     1    1
    34     2     3    1
    35     5     7    1
    36    62    61    1
    37    49    48   ar
    38    75    76    1
    39    64    61    1
    40    15    14   ar
    41     9     3   am
    42     9    10    1
    43    44    43    1
    44    44    47    1
    45    44    45    1
    46    14    13    1
    47    88    89    2
    48    88    87    1
    49    11    10    1
    50    11    23   am
    51    47    48    1
    52     3     4    2
    53    61    60    1
    54    76    77    1
    55    76    79    1
    56    78    77    2
    57    46    45    2
    58    48    50   ar
    59    24    23    1
    60    24    25    1
    61    24    27    1
    62    77    86   am
    63    45    51   am
    64    10    13    1
    65    25    26    2
    66    86    87    1
    67    60    53   am
    68    87    90    1
    69    79    80    1
    70    90    91    1
    71    51    52    1
    72    38    39    2
    73    38    37    1
    74   178   177    2
    75    53    54    2
    76    53    52    1
    77    91    92    1
    78    92    93    1
    79    93    94    2
    80    52    55    1
    81   182   184   ar
    82   182   180   ar
    83    81    80   ar
    84    81    83   ar
    85    80    82   ar
    86   184   185   ar
    87   177   176    1
    88   179   180    1
    89   179   176    1
    90    36    37    1
    91    36    42    1
    92   180   181   ar
    93    41    42    1
    94    41    40    1
    95    37    40    1
    96   185   186    1
    97   185   183   ar
    98   176   175    1
    99    96    94    1
   100    94    95    1
   101   181   183   ar
   102    83    85   ar
   103    82    84   ar
   104    55    56    1
   105   173   171    1
   106   161   162    1
   107   161   160    1
   108   167   168    1
   109   162   163    1
   110   165   164    1
   111   168   171    1
   112   168   169    1
   113    85    84   ar
   114    56    57    1
   115   171   172    1
   116   163   164    2
   117   164   166    1
   118   169   170    2
   119   160   157    1
   120   157   156    1
   121   157   158    1
   122    57    58    2
   123    57    59   am
   124   172   174    1
   125   152   151    2
   126    34    32    1
   127   158   159    2
   128    35    33    1
   129   151   150    1
   130    33    32    1
   131    32    29    1
   132   147   146    1
   133   148   146    1
   134   145   146    1
   135   145   142    1
   136    29    30    1
   137    29    28    1
   138   154   153    1
   139   154   155    1
   140   150   153    1
   141   150   149    1
   142    30    31    2
   143   144   143    2
   144   149   143   am
   145   149   155    1
   146   143   142    1
   147   142   141    1
   148   103   101    1
   149   102   101    1
   150   101    98    1
   151   117   115    1
   152   139   138    1
   153   138   140    1
   154   138   135    1
   155   116   115    1
   156   137   136    2
   157   115   114    1
   158    98    99    1
   159    98    97    1
   160   133   132    1
   161   109   108    1
   162   135   136    1
   163   135   134    1
   164   124   123    1
   165   124   118    1
   166   100    99    2
   167   123   122    1
   168   114   111    1
   169   111   110    1
   170   111   112    1
   171   132   131    1
   172   108   105    1
   173   134   127   am
   174   128   127    2
   175   107   106    2
   176   118   112   am
   177   118   119    1
   178   110   106   am
   179   122   119    1
   180   127   126    1
   181   106   105    1
   182   131   130    1
   183   130   129    1
   184   112   113    2
   185   105   104    1
   186   121   120    2
   187   119   120    1
   188   129   126    1
   189   126   125    1
