@<TRIPOS>MOLECULE
tmp/1dfgB01.pdb
 143 137 0 0 0
SMALL
GASTEIGER

@<TRIPOS>ATOM
      1  N        -17.0180   48.9270  152.7810 N.3    19  ILE19      -0.1245
      2  CA       -16.8350   49.3980  151.4270 C.3    19  ILE19       0.1561
      3  C        -18.1660   49.2500  150.6640 C.2    19  ILE19       0.2260
      4  O        -18.6590   50.2310  150.0490 O.2    19  ILE19      -0.2867
      5  CB       -15.6170   48.6700  150.7230 C.3    19  ILE19       0.0252
      6  CG1      -14.2960   49.3560  151.0960 C.3    19  ILE19       0.0019
      7  CG2      -15.7570   48.6530  149.2010 C.3    19  ILE19       0.0019
      8  CD1      -13.0480   48.5290  150.7650 C.3    19  ILE19       0.0001
      9  N        -16.3560   40.4120  149.6580 N.3    91  ILE91      -0.1231
     10  CA       -16.2040   39.4580  150.7190 C.3    91  ILE91       0.1692
     11  C        -14.7280   39.1010  150.8890 C.2    91  ILE91       0.2593
     12  O        -13.9290   39.2660  149.9640 O.2    91  ILE91      -0.2718
     13  CB       -17.0170   38.2190  150.3570 C.3    91  ILE91       0.0266
     14  CG1      -18.5030   38.4850  150.5920 C.3    91  ILE91       0.0019
     15  CG2      -16.5480   37.0430  151.0960 C.3    91  ILE91       0.0020
     16  CD1      -19.3900   37.9140  149.5220 C.3    91  ILE91       0.0001
     17  N        -14.3620   38.6700  152.0890 N.am   92  GLY92      -0.1942
     18  CA       -12.9800   38.3080  152.3640 C.3    92  GLY92       0.2014
     19  C        -12.8440   37.7220  153.7570 C.2    92  GLY92       0.2639
     20  O        -13.6290   38.0240  154.6390 O.2    92  GLY92      -0.2714
     21  N        -11.8580   36.8590  153.9480 N.am   93  PHE93      -0.1959
     22  CA       -11.6430   36.2870  155.2590 C.3    93  PHE93       0.1771
     23  C        -10.4190   35.4060  155.4080 C.2    93  PHE93       0.2619
     24  O         -9.9910   34.7400  154.4560 O.2    93  PHE93      -0.2715
     25  CB       -12.8960   35.5730  155.7840 C.3    93  PHE93       0.0574
     26  CG       -12.6900   34.8750  157.1210 C.ar   93  PHE93      -0.0200
     27  CD1      -12.9060   35.5490  158.3350 C.ar   93  PHE93      -0.0042
     28  CD2      -12.2610   33.5580  157.1640 C.ar   93  PHE93      -0.0042
     29  CE1      -12.7170   34.8880  159.5680 C.ar   93  PHE93      -0.0003
     30  CE2      -12.0120   32.9140  158.3890 C.ar   93  PHE93      -0.0003
     31  CZ       -12.2520   33.5780  159.5880 C.ar   93  PHE93      -0.0000
     32  N         -9.8890   35.3880  156.6400 N.am   94  ALA94      -0.1977
     33  CA        -8.7510   34.5460  157.0510 C.3    94  ALA94       0.1597
     34  C         -8.7040   34.5820  158.5620 C.2    94  ALA94       0.2287
     35  O         -9.0920   35.5770  159.1550 O.2    94  ALA94      -0.2864
     36  CB        -7.4330   35.0780  156.4950 C.3    94  ALA94       0.0319
     37  N         -7.3480   35.1260  162.1630 N.3    96  GLY96      -0.1225
     38  CA        -6.4850   36.1680  162.7050 C.3    96  GLY96       0.1811
     39  C         -5.0460   35.7700  162.9730 C.2    96  GLY96       0.2280
     40  O         -4.1290   36.5780  162.7910 O.2    96  GLY96      -0.2866
     41  N         -2.6580   36.7060  160.2760 N.3    99  LEU99      -0.1245
     42  CA        -2.1710   38.0110  159.8430 C.3    99  LEU99       0.1561
     43  C         -1.2910   38.6840  160.8470 C.2    99  LEU99       0.2260
     44  O         -1.3510   39.8990  161.0050 O.2    99  LEU99      -0.2867
     45  CB        -3.3390   38.9290  159.4520 C.3    99  LEU99       0.0270
     46  CG        -4.3180   38.4580  158.3540 C.3    99  LEU99       0.0019
     47  CD1       -3.6800   37.4040  157.3840 C.3    99  LEU99       0.0001
     48  CD2       -5.5850   37.9030  158.9830 C.3    99  LEU99       0.0001
     49  N         -9.9410   44.1610  145.6560 N.3   144  SER144     -0.1202
     50  CA        -8.6550   43.5780  145.9520 C.3   144  SER144      0.2020
     51  C         -7.7370   44.5740  146.6510 C.2   144  SER144      0.2618
     52  O         -8.1950   45.6350  147.0920 O.2   144  SER144     -0.2717
     53  CB        -8.0610   42.9640  144.6760 C.3   144  SER144      0.2103
     54  OG        -6.7480   42.5020  144.8530 O.3   144  SER144     -0.2182
     55  N         -6.4630   44.2180  146.8090 N.am  145  TYR145     -0.1975
     56  CA        -5.5220   45.0540  147.5620 C.3   145  TYR145      0.1639
     57  C         -4.0840   44.9300  147.0260 C.2   145  TYR145      0.2290
     58  O         -3.7170   43.8940  146.4580 O.2   145  TYR145     -0.2864
     59  CB        -5.5850   44.6820  149.0720 C.3   145  TYR145      0.0560
     60  CG        -4.7710   45.5850  149.9490 C.ar  145  TYR145     -0.0198
     61  CD1       -4.9610   46.9660  149.9230 C.ar  145  TYR145     -0.0009
     62  CD2       -3.7630   45.0810  150.7400 C.ar  145  TYR145     -0.0009
     63  CE1       -4.1440   47.8210  150.6560 C.ar  145  TYR145      0.0417
     64  CE2       -2.9520   45.9320  151.4960 C.ar  145  TYR145      0.0417
     65  CZ        -3.1440   47.2950  151.4400 C.ar  145  TYR145      0.1957
     66  OH        -2.3530   48.1280  152.2030 O.3   145  TYR145     -0.2866
     67  N          0.2510   41.3210  156.0800 N.3   155  TYR155     -0.1241
     68  CA        -0.8270   40.9780  155.1670 C.3   155  TYR155      0.1605
     69  C         -0.7770   39.5320  154.8550 C.2   155  TYR155      0.2264
     70  O         -1.7780   38.9060  154.5750 O.2   155  TYR155     -0.2867
     71  CB        -0.8460   41.8230  153.9070 C.3   155  TYR155      0.0534
     72  CG        -2.2040   41.7970  153.2470 C.ar  155  TYR155     -0.0201
     73  CD1       -3.3690   42.1960  153.9580 C.ar  155  TYR155     -0.0009
     74  CD2       -2.3460   41.4120  151.8950 C.ar  155  TYR155     -0.0009
     75  CE1       -4.6520   42.1770  153.3390 C.ar  155  TYR155      0.0417
     76  CE2       -3.5960   41.4000  151.2660 C.ar  155  TYR155      0.0417
     77  CZ        -4.7400   41.7710  151.9950 C.ar  155  TYR155      0.1957
     78  OH        -5.9630   41.7060  151.3950 O.3   155  TYR155     -0.2866
     79  N         -3.2930   36.6660  152.9740 N.3   158  MET158     -0.1245
     80  CA        -4.3590   37.3690  152.2380 C.3   158  MET158      0.1570
     81  C         -3.7810   37.8680  150.9390 C.2   158  MET158      0.2261
     82  O         -4.4590   37.9390  149.8970 O.2   158  MET158     -0.2867
     83  CB        -4.9740   38.5190  153.0580 C.3   158  MET158      0.0387
     84  CG        -6.0810   38.0520  153.9560 C.3   158  MET158      0.0595
     85  SD        -7.4510   37.4340  152.9950 S.3   158  MET158     -0.1393
     86  CE        -7.6910   38.7990  151.9900 C.3   158  MET158      0.0692
     87  N         -5.4780   37.1790  147.4940 N.3   162  LYS162     -0.1245
     88  CA        -5.8360   38.2940  146.6210 C.3   162  LYS162      0.1561
     89  C         -5.2570   38.1200  145.2390 C.2   162  LYS162      0.2260
     90  O         -5.8460   38.5590  144.2330 O.2   162  LYS162     -0.2867
     91  CB        -5.3650   39.6340  147.1970 C.3   162  LYS162      0.0271
     92  CG        -6.0240   40.0420  148.5140 C.3   162  LYS162      0.0035
     93  CD        -7.5420   40.0150  148.4050 C.3   162  LYS162      0.0206
     94  CE        -8.2080   40.9290  149.4450 C.3   162  LYS162      0.1093
     95  NZ        -9.6310   41.3280  149.0760 N.3   162  LYS162     -0.1314
     96  N         -7.2180   51.5020  148.2570 N.3   189  GLY189     -0.1210
     97  CA        -6.2140   51.7770  149.2400 C.3   189  GLY189      0.1940
     98  C         -6.8200   51.4170  150.5660 C.2   189  GLY189      0.2454
     99  O         -8.0000   51.0700  150.6580 O.2   189  GLY189     -0.2732
    100  N         -6.0020   51.4840  151.6000 N.am  190  PRO190     -0.2717
    101  CA        -6.4650   51.2030  152.9550 C.3   190  PRO190      0.1535
    102  C         -7.3870   52.3580  153.2930 C.2   190  PRO190      0.2598
    103  O         -7.0810   53.5110  153.0400 O.2   190  PRO190     -0.2715
    104  CB        -5.1900   51.2580  153.8040 C.3   190  PRO190      0.0310
    105  CG        -4.0920   51.8470  152.8940 C.3   190  PRO190      0.0237
    106  CD        -4.5600   51.7820  151.4930 C.3   190  PRO190      0.0939
    107  N         -8.5600   52.0530  153.7800 N.am  191  ILE191     -0.1978
    108  CA        -9.5150   53.0970  154.0580 C.3   191  ILE191      0.1596
    109  C         -9.4580   53.5670  155.5150 C.2   191  ILE191      0.2287
    110  O         -9.3970   52.7520  156.4670 O.2   191  ILE191     -0.2864
    111  CB       -10.8770   52.6350  153.6640 C.3   191  ILE191      0.0276
    112  CG1      -10.8600   52.2590  152.1830 C.3   191  ILE191      0.0022
    113  CG2      -11.8960   53.6700  153.9590 C.3   191  ILE191      0.0022
    114  CD1      -12.1240   52.5400  151.4670 C.3   191  ILE191      0.0001
    115  N         -8.8100   46.5800  162.7370 N.3   197  SER197     -0.1202
    116  CA        -8.5440   45.6150  161.6880 C.3   197  SER197      0.2020
    117  C         -8.0330   44.2830  162.0970 C.2   197  SER197      0.2619
    118  O         -7.7580   43.9990  163.2800 O.2   197  SER197     -0.2717
    119  CB        -7.5850   46.1810  160.6360 C.3   197  SER197      0.2103
    120  OG        -8.2730   46.9880  159.6920 O.3   197  SER197     -0.2182
    121  N         -7.8920   43.4560  161.0690 N.am  198  GLY198     -0.1942
    122  CA        -7.2630   42.1620  161.1350 C.3   198  GLY198      0.2014
    123  C         -5.7970   42.4680  160.8280 C.2   198  GLY198      0.2638
    124  O         -4.9020   42.0070  161.5580 O.2   198  GLY198     -0.2714
    125  N         -5.5480   43.2720  159.7820 N.am  199  ILE199     -0.1977
    126  CA        -4.1690   43.6500  159.4720 C.3   199  ILE199      0.1596
    127  C         -3.5740   44.3230  160.7090 C.2   199  ILE199      0.2287
    128  O         -4.1160   45.3040  161.2400 O.2   199  ILE199     -0.2864
    129  CB        -4.0210   44.5970  158.2720 C.3   199  ILE199      0.0276
    130  CG1       -4.6920   44.0090  157.0340 C.3   199  ILE199      0.0022
    131  CG2       -2.5360   44.8990  158.0170 C.3   199  ILE199      0.0022
    132  CD1       -6.1660   44.1980  157.0320 C.3   199  ILE199      0.0001
    133  N         -2.3830   48.3620  161.2050 N.3   202  PHE202     -0.1241
    134  CA        -3.1540   49.0450  160.1440 C.3   202  PHE202      0.1605
    135  C         -3.0970   50.5380  160.3170 C.2   202  PHE202      0.2264
    136  O         -2.9550   51.2650  159.3440 O.2   202  PHE202     -0.2867
    137  CB        -4.6280   48.6240  160.1600 C.3   202  PHE202      0.0534
    138  CG        -5.3510   48.9800  158.8970 C.ar  202  PHE202     -0.0203
    139  CD1       -4.8840   48.5230  157.6840 C.ar  202  PHE202     -0.0042
    140  CD2       -6.4580   49.7930  158.9110 C.ar  202  PHE202     -0.0042
    141  CE1       -5.5330   48.8410  156.5220 C.ar  202  PHE202     -0.0003
    142  CE2       -7.1000   50.1190  157.7400 C.ar  202  PHE202     -0.0003
    143  CZ        -6.6430   49.6510  156.5550 C.ar  202  PHE202     -0.0000
@<TRIPOS>BOND
     1    90    89    2
     2    53    54    1
     3    53    50    1
     4    89    88    1
     5    49    50    1
     6    50    51    1
     7    58    57    2
     8    88    91    1
     9    88    87    1
    10    51    55   am
    11    51    52    2
    12    55    56    1
    13    57    56    1
    14    91    92    1
    15    56    59    1
    16    96    97    1
    17    93    92    1
    18    93    94    1
    19    59    60    1
    20    95    94    1
    21     7     5    1
    22    97    98    1
    23    16    14    1
    24     9    10    1
    25    82    81    2
    26    61    60   ar
    27    61    63   ar
    28    60    62   ar
    29    12    11    2
    30     4     3    2
    31    13    14    1
    32    13    10    1
    33    13    15    1
    34    98    99    2
    35    98   100   am
    36    63    65   ar
    37     3     2    1
    38    10    11    1
    39     5     6    1
    40     5     2    1
    41    62    64   ar
    42     8     6    1
    43    11    17   am
    44    81    80    1
    45    76    74   ar
    46    76    77   ar
    47    78    77    1
    48     2     1    1
    49    65    64   ar
    50    65    66    1
    51   114   112    1
    52   106   100    1
    53   106   105    1
    54   100   101    1
    55    74    72   ar
    56    86    85    1
    57    77    75   ar
    58    17    18    1
    59   112   111    1
    60    80    79    1
    61    80    83    1
    62    18    19    1
    63   105   104    1
    64   101   102    1
    65   101   104    1
    66    85    84    1
    67   103   102    2
    68    83    84    1
    69    72    71    1
    70    72    73   ar
    71   102   107   am
    72    75    73   ar
    73   111   113    1
    74   111   108    1
    75    19    21   am
    76    19    20    2
    77   107   108    1
    78    71    68    1
    79    21    22    1
    80   108   109    1
    81    24    23    2
    82    70    69    2
    83    69    68    1
    84    68    67    1
    85    22    23    1
    86    22    25    1
    87    23    32   am
    88   109   110    2
    89    25    26    1
    90    36    33    1
    91   141   143   ar
    92   141   139   ar
    93   143   142   ar
    94    32    33    1
    95   132   130    1
    96   130   129    1
    97    33    34    1
    98    26    28   ar
    99    26    27   ar
   100    28    30   ar
   101    47    46    1
   102   139   138   ar
   103   142   140   ar
   104   131   129    1
   105   129   126    1
   106    27    29   ar
   107    46    48    1
   108    46    45    1
   109    30    31   ar
   110    34    35    2
   111   138   140   ar
   112   138   137    1
   113   136   135    2
   114    45    42    1
   115   126   125    1
   116   126   127    1
   117    29    31   ar
   118   120   119    1
   119   125   123   am
   120    42    41    1
   121    42    43    1
   122   134   137    1
   123   134   135    1
   124   134   133    1
   125   119   116    1
   126   127   128    2
   127   123   122    1
   128   123   124    2
   129    43    44    2
   130   121   122    1
   131   121   117   am
   132   116   117    1
   133   116   115    1
   134   117   118    2
   135    37    38    1
   136    38    39    1
   137    40    39    2
