@<TRIPOS>MOLECULE
tmp/1dfhB01.pdb
 139 134 0 0 0
SMALL
GASTEIGER

@<TRIPOS>ATOM
      1  N        -15.4610   40.5430  151.3260 N.3    91  ILE91      -0.1231
      2  CA       -15.3310   39.5600  152.3700 C.3    91  ILE91       0.1692
      3  C        -13.9070   39.0380  152.4410 C.2    91  ILE91       0.2593
      4  O        -13.3090   38.7480  151.4340 O.2    91  ILE91      -0.2718
      5  CB       -16.1840   38.3340  151.9510 C.3    91  ILE91       0.0266
      6  CG1      -17.6650   38.6650  152.0710 C.3    91  ILE91       0.0019
      7  CG2      -15.8140   37.1040  152.7430 C.3    91  ILE91       0.0020
      8  CD1      -18.5040   37.8370  151.1630 C.3    91  ILE91       0.0001
      9  N        -13.4170   38.7810  153.6330 N.am   92  GLY92      -0.1942
     10  CA       -12.1040   38.1660  153.7660 C.3    92  GLY92       0.2014
     11  C        -12.0510   37.7000  155.1930 C.2    92  GLY92       0.2639
     12  O        -12.8810   38.1000  156.0040 O.2    92  GLY92      -0.2714
     13  N        -11.0980   36.8290  155.4860 N.am   93  PHE93      -0.1959
     14  CA       -10.8690   36.3410  156.8520 C.3    93  PHE93       0.1771
     15  C         -9.5770   35.5610  156.9980 C.2    93  PHE93       0.2619
     16  O         -9.1680   34.8330  156.0990 O.2    93  PHE93      -0.2715
     17  CB       -12.0060   35.4410  157.3380 C.3    93  PHE93       0.0574
     18  CG       -11.7710   34.8550  158.7090 C.ar   93  PHE93      -0.0200
     19  CD1      -12.1550   35.5460  159.8460 C.ar   93  PHE93      -0.0042
     20  CD2      -11.1360   33.6430  158.8630 C.ar   93  PHE93      -0.0042
     21  CE1      -11.9630   35.0150  161.0990 C.ar   93  PHE93      -0.0003
     22  CE2      -10.9230   33.1200  160.1190 C.ar   93  PHE93      -0.0003
     23  CZ       -11.3500   33.8030  161.2360 C.ar   93  PHE93      -0.0000
     24  N         -9.0020   35.6480  158.1860 N.am   94  ALA94      -0.1977
     25  CA        -7.8540   34.8370  158.5890 C.3    94  ALA94       0.1597
     26  C         -7.8380   34.8140  160.1260 C.2    94  ALA94       0.2287
     27  O         -8.1230   35.8190  160.7530 O.2    94  ALA94      -0.2864
     28  CB        -6.5730   35.4140  158.0640 C.3    94  ALA94       0.0319
     29  N         -1.6730   36.9760  161.6780 N.3    99  LEU99      -0.1245
     30  CA        -1.3400   38.3440  161.3430 C.3    99  LEU99       0.1561
     31  C         -0.4870   39.0570  162.3340 C.2    99  LEU99       0.2260
     32  O         -0.6290   40.2740  162.5270 O.2    99  LEU99      -0.2867
     33  CB        -2.6220   39.1480  161.1940 C.3    99  LEU99       0.0270
     34  CG        -3.4850   39.0590  159.9360 C.3    99  LEU99       0.0019
     35  CD1       -3.0760   37.9710  158.9710 C.3    99  LEU99       0.0001
     36  CD2       -4.9030   38.8450  160.3760 C.3    99  LEU99       0.0001
     37  N         -9.2600   44.1020  146.9480 N.3   144  SER144     -0.1202
     38  CA        -7.9690   43.5370  147.2130 C.3   144  SER144      0.2020
     39  C         -7.1250   44.4790  148.0340 C.2   144  SER144      0.2618
     40  O         -7.6370   45.4360  148.5960 O.2   144  SER144     -0.2717
     41  CB        -7.2900   43.1360  145.8910 C.3   144  SER144      0.2103
     42  OG        -6.1340   42.3430  146.1280 O.3   144  SER144     -0.2182
     43  N         -5.8330   44.1910  148.1400 N.am  145  TYR145     -0.1975
     44  CA        -4.9080   45.0560  148.8810 C.3   145  TYR145      0.1639
     45  C         -3.4660   44.8230  148.3930 C.2   145  TYR145      0.2290
     46  O         -3.1250   43.7120  147.9740 O.2   145  TYR145     -0.2864
     47  CB        -4.9960   44.7990  150.3970 C.3   145  TYR145      0.0560
     48  CG        -4.0070   45.6410  151.1680 C.ar  145  TYR145     -0.0198
     49  CD1       -4.0320   47.0240  151.0660 C.ar  145  TYR145     -0.0009
     50  CD2       -3.0020   45.0560  151.9430 C.ar  145  TYR145     -0.0009
     51  CE1       -3.0940   47.8190  151.7180 C.ar  145  TYR145      0.0417
     52  CE2       -2.0500   45.8540  152.6280 C.ar  145  TYR145      0.0417
     53  CZ        -2.1020   47.2250  152.5080 C.ar  145  TYR145      0.1957
     54  OH        -1.1520   48.0050  153.1450 O.3   145  TYR145     -0.2866
     55  N          0.8840   41.4700  157.4840 N.3   155  TYR155     -0.1241
     56  CA        -0.1970   41.0780  156.5970 C.3   155  TYR155      0.1605
     57  C         -0.0450   39.6010  156.3080 C.2   155  TYR155      0.2264
     58  O         -1.0200   38.8740  156.1660 O.2   155  TYR155     -0.2867
     59  CB        -0.1910   41.9130  155.3340 C.3   155  TYR155      0.0534
     60  CG        -1.5150   41.9220  154.6320 C.ar  155  TYR155     -0.0201
     61  CD1       -2.6640   42.3800  155.2820 C.ar  155  TYR155     -0.0009
     62  CD2       -1.6330   41.4550  153.3190 C.ar  155  TYR155     -0.0009
     63  CE1       -3.9080   42.3690  154.6380 C.ar  155  TYR155      0.0417
     64  CE2       -2.8630   41.4310  152.6690 C.ar  155  TYR155      0.0417
     65  CZ        -3.9900   41.9180  153.3240 C.ar  155  TYR155      0.1957
     66  OH        -5.1890   41.9620  152.6780 O.3   155  TYR155     -0.2866
     67  N         -2.2860   36.6810  154.4470 N.3   158  MET158     -0.1245
     68  CA        -3.3830   37.3220  153.7470 C.3   158  MET158      0.1570
     69  C         -2.8140   37.8280  152.4440 C.2   158  MET158      0.2261
     70  O         -3.5230   38.0170  151.4550 O.2   158  MET158     -0.2867
     71  CB        -3.8860   38.5220  154.5780 C.3   158  MET158      0.0387
     72  CG        -5.0510   38.1970  155.4780 C.3   158  MET158      0.0595
     73  SD        -6.2950   37.1060  154.7400 S.3   158  MET158     -0.1393
     74  CE        -6.7320   38.1060  153.3110 C.3   158  MET158      0.0692
     75  N         -4.5600   37.2270  148.8720 N.3   162  LYS162     -0.1245
     76  CA        -5.0430   38.2780  147.9700 C.3   162  LYS162      0.1561
     77  C         -4.4670   38.1070  146.5720 C.2   162  LYS162      0.2260
     78  O         -5.0900   38.4740  145.5590 O.2   162  LYS162     -0.2867
     79  CB        -4.7020   39.6610  148.5010 C.3   162  LYS162      0.0271
     80  CG        -5.4200   39.9850  149.7770 C.3   162  LYS162      0.0035
     81  CD        -6.9320   40.2060  149.5730 C.3   162  LYS162      0.0206
     82  CE        -7.4300   41.2730  150.5610 C.3   162  LYS162      0.1093
     83  NZ        -8.8780   41.2000  150.8030 N.3   162  LYS162     -0.1314
     84  N         -6.2800   51.2490  149.3690 N.3   189  GLY189     -0.1210
     85  CA        -5.2930   51.6280  150.3530 C.3   189  GLY189      0.1940
     86  C         -5.9330   51.4260  151.7170 C.2   189  GLY189      0.2454
     87  O         -7.1430   51.1700  151.8110 O.2   189  GLY189     -0.2732
     88  N         -5.1030   51.4980  152.7630 N.am  190  PRO190     -0.2717
     89  CA        -5.5630   51.3240  154.1300 C.3   190  PRO190      0.1535
     90  C         -6.4750   52.4720  154.4690 C.2   190  PRO190      0.2598
     91  O         -6.2120   53.6320  154.1390 O.2   190  PRO190     -0.2715
     92  CB        -4.2620   51.3910  154.9600 C.3   190  PRO190      0.0310
     93  CG        -3.2660   51.9770  154.0940 C.3   190  PRO190      0.0237
     94  CD        -3.6470   51.6440  152.6850 C.3   190  PRO190      0.0939
     95  N         -7.5860   52.1450  155.0890 N.am  191  ILE191     -0.1978
     96  CA        -8.5490   53.1690  155.4180 C.3   191  ILE191      0.1596
     97  C         -8.5780   53.4520  156.9100 C.2   191  ILE191      0.2287
     98  O         -8.5810   52.5280  157.7570 O.2   191  ILE191     -0.2864
     99  CB        -9.9460   52.8190  154.8670 C.3   191  ILE191      0.0276
    100  CG1       -9.9100   52.8360  153.3320 C.3   191  ILE191      0.0022
    101  CG2      -10.9810   53.7920  155.4080 C.3   191  ILE191      0.0022
    102  CD1      -11.0470   52.1110  152.6570 C.3   191  ILE191      0.0001
    103  N         -8.0950   47.0780  164.4320 N.3   197  SER197     -0.1202
    104  CA        -7.6690   46.1250  163.4360 C.3   197  SER197      0.2020
    105  C         -7.0350   44.8720  164.0000 C.2   197  SER197      0.2619
    106  O         -6.3280   44.8970  165.0170 O.2   197  SER197     -0.2717
    107  CB        -6.7460   46.7710  162.4020 C.3   197  SER197      0.2103
    108  OG        -6.5450   45.9120  161.2960 O.3   197  SER197     -0.2182
    109  N         -7.2520   43.7850  163.2930 N.am  198  GLY198     -0.1942
    110  CA        -6.6720   42.5200  163.6500 C.3   198  GLY198      0.2014
    111  C         -5.2650   42.4300  163.0540 C.2   198  GLY198      0.2638
    112  O         -4.5080   41.5230  163.3990 O.2   198  GLY198     -0.2714
    113  N         -4.9170   43.3610  162.1570 N.am  199  ILE199     -0.1977
    114  CA        -3.5780   43.3610  161.5570 C.3   199  ILE199      0.1596
    115  C         -2.6310   44.1250  162.4760 C.2   199  ILE199      0.2287
    116  O         -2.7930   45.3440  162.6600 O.2   199  ILE199     -0.2864
    117  CB        -3.5340   44.0450  160.1730 C.3   199  ILE199      0.0276
    118  CG1       -4.4660   43.3490  159.1700 C.3   199  ILE199      0.0022
    119  CG2       -2.0940   44.0760  159.6540 C.3   199  ILE199      0.0022
    120  CD1       -4.7970   44.2210  157.9590 C.3   199  ILE199      0.0001
    121  N         -1.5850   48.2050  162.4710 N.3   202  PHE202     -0.1241
    122  CA        -2.3320   48.8560  161.4030 C.3   202  PHE202      0.1605
    123  C         -2.2490   50.3780  161.5560 C.2   202  PHE202      0.2264
    124  O         -2.0690   51.1020  160.5700 O.2   202  PHE202     -0.2867
    125  CB        -3.7950   48.3850  161.4200 C.3   202  PHE202      0.0534
    126  CG        -4.6400   48.9560  160.3100 C.ar  202  PHE202     -0.0203
    127  CD1       -4.5980   48.4110  159.0430 C.ar  202  PHE202     -0.0042
    128  CD2       -5.5000   50.0120  160.5400 C.ar  202  PHE202     -0.0042
    129  CE1       -5.4070   48.9060  158.0240 C.ar  202  PHE202     -0.0003
    130  CE2       -6.3050   50.5250  159.5190 C.ar  202  PHE202     -0.0003
    131  CZ        -6.2580   49.9700  158.2720 C.ar  202  PHE202     -0.0000
    132  N          0.8720   51.7990  160.1350 N.3   205  MET205     -0.1245
    133  CA         0.7700   51.6640  158.6980 C.3   205  MET205      0.1570
    134  C         -0.0430   52.8470  158.0910 C.2   205  MET205      0.2261
    135  O          0.3640   53.4510  157.0950 O.2   205  MET205     -0.2867
    136  CB         0.1380   50.3100  158.4200 C.3   205  MET205      0.0387
    137  CG         0.2830   49.6940  157.0390 C.3   205  MET205      0.0595
    138  SD        -0.6530   48.1380  156.9430 S.3   205  MET205     -0.1393
    139  CE        -0.3170   47.4640  158.4990 C.3   205  MET205      0.0692
@<TRIPOS>BOND
     1    78    77    2
     2    41    42    1
     3    41    38    1
     4    77    76    1
     5    37    38    1
     6    38    39    1
     7    76    79    1
     8    76    75    1
     9    46    45    2
    10    39    43   am
    11    39    40    2
    12    43    44    1
    13    45    44    1
    14    79    80    1
    15    44    47    1
    16    84    85    1
    17    81    80    1
    18    81    82    1
    19    85    86    1
    20    47    48    1
    21    82    83    1
    22    49    48   ar
    23    49    51   ar
    24     8     6    1
    25    48    50   ar
    26     1     2    1
    27     4     3    2
    28    70    69    2
    29    86    87    2
    30    86    88   am
    31    51    53   ar
    32    50    52   ar
    33     5     6    1
    34     5     2    1
    35     5     7    1
    36     2     3    1
    37     3     9   am
    38    69    68    1
    39    53    52   ar
    40    53    54    1
    41   102   100    1
    42    64    62   ar
    43    64    65   ar
    44    66    65    1
    45    94    88    1
    46    94    93    1
    47    88    89    1
    48    74    73    1
    49    62    60   ar
    50    65    63   ar
    51   100    99    1
    52     9    10    1
    53    68    67    1
    54    68    71    1
    55    10    11    1
    56    93    92    1
    57    89    90    1
    58    89    92    1
    59    91    90    2
    60    90    95   am
    61    71    72    1
    62    60    61   ar
    63    60    59    1
    64    63    61   ar
    65    73    72    1
    66    99   101    1
    67    99    96    1
    68    95    96    1
    69    11    13   am
    70    11    12    2
    71    59    56    1
    72    96    97    1
    73    13    14    1
    74    16    15    2
    75    58    57    2
    76    57    56    1
    77    56    55    1
    78    14    15    1
    79    14    17    1
    80    97    98    2
    81   138   137    1
    82   138   139    1
    83    15    24   am
    84   137   136    1
    85   135   134    2
    86    17    18    1
    87   120   118    1
    88   129   131   ar
    89   129   127   ar
    90    28    25    1
    91   134   133    1
    92    24    25    1
    93   131   130   ar
    94   136   133    1
    95    25    26    1
    96   133   132    1
    97    18    20   ar
    98    18    19   ar
    99    20    22   ar
   100    35    34    1
   101   127   126   ar
   102   118   117    1
   103   130   128   ar
   104   119   117    1
   105    19    21   ar
   106    34    36    1
   107    34    33    1
   108    22    23   ar
   109    26    27    2
   110   117   114    1
   111   126   128   ar
   112   126   125    1
   113   124   123    2
   114    21    23   ar
   115    33    30    1
   116   108   107    1
   117    30    29    1
   118    30    31    1
   119   122   125    1
   120   122   123    1
   121   122   121    1
   122   114   113    1
   123   114   115    1
   124   113   111   am
   125    31    32    2
   126   107   104    1
   127   115   116    2
   128   111   112    2
   129   111   110    1
   130   109   110    1
   131   109   105   am
   132   104   105    1
   133   104   103    1
   134   105   106    2
