@<TRIPOS>MOLECULE
tmp/1dflA00.pdb
 160 155 0 0 0
SMALL
GASTEIGER

@<TRIPOS>ATOM
      1  N         -6.9510  -10.6500   50.6370 N.3   101  ILE101     -0.1245
      2  CA        -5.8610   -9.6970   50.7810 C.3   101  ILE101      0.1561
      3  C         -4.6690  -10.2480   51.5480 C.2   101  ILE101      0.2260
      4  O         -3.6610   -9.5460   51.7350 O.2   101  ILE101     -0.2867
      5  CB        -6.3630   -8.4100   51.5060 C.3   101  ILE101      0.0252
      6  CG1       -6.8050   -8.6850   52.9500 C.3   101  ILE101      0.0019
      7  CG2       -7.4800   -7.7960   50.6900 C.3   101  ILE101      0.0019
      8  CD1       -7.1230   -7.4190   53.7190 C.3   101  ILE101      0.0001
      9  N         -3.5630   -3.6580   51.2590 N.3   113  ASN113     -0.1226
     10  CA        -4.5960   -2.7400   51.7270 C.3   113  ASN113      0.1770
     11  C         -5.9380   -2.8120   50.9680 C.2   113  ASN113      0.2439
     12  O         -6.0050   -2.5520   49.7620 O.2   113  ASN113     -0.2733
     13  CB        -4.0540   -1.3190   51.6750 C.3   113  ASN113      0.1168
     14  CG        -5.0000   -0.2950   52.2530 C.2   113  ASN113      0.2627
     15  OD1       -6.1610   -0.5750   52.5820 O.2   113  ASN113     -0.2716
     16  ND2       -4.5320    0.9310   52.2690 N.am  113  ASN113     -0.0877
     17  N         -7.0380   -3.1390   51.6810 N.am  114  PRO114     -0.2718
     18  CA        -8.3800   -3.2550   51.0910 C.3   114  PRO114      0.1535
     19  C         -9.1320   -1.9760   50.7850 C.2   114  PRO114      0.2599
     20  O         -9.9810   -1.9600   49.8770 O.2   114  PRO114     -0.2715
     21  CB        -9.1840   -4.0360   52.1110 C.3   114  PRO114      0.0310
     22  CG        -8.5540   -3.6690   53.4610 C.3   114  PRO114      0.0237
     23  CD        -7.0800   -3.6540   53.1120 C.3   114  PRO114      0.0939
     24  N         -8.8150   -0.9190   51.5350 N.am  115  TYR115     -0.1960
     25  CA        -9.4670    0.3880   51.3930 C.3   115  TYR115      0.1771
     26  C        -10.9870    0.1990   51.4810 C.2   115  TYR115      0.2619
     27  O        -11.7570    0.7930   50.7300 O.2   115  TYR115     -0.2715
     28  CB        -9.0800    1.0550   50.0670 C.3   115  TYR115      0.0574
     29  CG        -7.7160    1.7460   50.0750 C.ar  115  TYR115     -0.0198
     30  CD1       -7.4370    2.7390   50.9920 C.ar  115  TYR115     -0.0009
     31  CD2       -6.7470    1.3400   49.1560 C.ar  115  TYR115     -0.0009
     32  CE1       -6.1910    3.3660   51.0250 C.ar  115  TYR115      0.0417
     33  CE2       -5.5090    1.9700   49.2060 C.ar  115  TYR115      0.0417
     34  CZ        -5.2510    2.9560   50.1030 C.ar  115  TYR115      0.1957
     35  OH        -3.9730    3.5350   50.0900 O.3   115  TYR115     -0.2866
     36  N        -11.4040   -0.6450   52.4220 N.am  116  ARG116     -0.1963
     37  CA       -12.8070   -0.9420   52.6410 C.3   116  ARG116      0.1729
     38  C        -12.8960   -1.9120   53.8260 C.2   116  ARG116      0.2616
     39  O        -11.9620   -2.6650   54.0980 O.2   116  ARG116     -0.2715
     40  CB       -13.3930   -1.5460   51.3650 C.3   116  ARG116      0.0348
     41  CG       -12.8600   -2.9060   50.9750 C.3   116  ARG116      0.0492
     42  CD       -13.4490   -3.3330   49.6390 C.3   116  ARG116      0.2205
     43  NE       -13.0210   -4.6250   49.1700 N.pl3 116  ARG116     -0.0865
     44  CZ       -13.4840   -5.8040   49.5220 C.cat 116  ARG116      0.5346
     45  NH1      -14.4860   -5.8490   50.3740 N.pl3 116  ARG116      0.1354
     46  NH2      -12.9870   -6.8840   48.9630 N.pl3 116  ARG116      0.1354
     47  N        -14.0100   -1.8930   54.5430 N.am  117  ARG117     -0.1963
     48  CA       -14.1480   -2.7720   55.6940 C.3   117  ARG117      0.1729
     49  C        -14.5270   -4.1860   55.2880 C.2   117  ARG117      0.2616
     50  O        -15.4010   -4.3880   54.4430 O.2   117  ARG117     -0.2715
     51  CB       -15.1810   -2.1940   56.6660 C.3   117  ARG117      0.0348
     52  CG       -14.5800   -1.0390   57.4230 C.3   117  ARG117      0.0492
     53  CD       -13.6900   -1.5020   58.5530 C.3   117  ARG117      0.2205
     54  NE       -14.3290   -2.4420   59.4620 N.pl3 117  ARG117     -0.0865
     55  CZ       -13.8950   -3.6830   59.6850 C.cat 117  ARG117      0.5346
     56  NH1      -12.8230   -4.1700   59.0490 N.pl3 117  ARG117      0.1354
     57  NH2      -14.5900   -4.4510   60.5430 N.pl3 117  ARG117      0.1354
     58  N        -13.8580   -5.1570   55.9010 N.am  118  LEU118     -0.1977
     59  CA       -14.0960   -6.5660   55.6120 C.3   118  LEU118      0.1596
     60  C        -14.5120   -7.3610   56.8370 C.2   118  LEU118      0.2287
     61  O        -13.9160   -7.2280   57.8990 O.2   118  LEU118     -0.2864
     62  CB       -12.8310   -7.1830   55.0230 C.3   118  LEU118      0.0297
     63  CG       -12.5670   -7.0190   53.5350 C.3   118  LEU118      0.0022
     64  CD1      -12.2760   -5.5800   53.1470 C.3   118  LEU118      0.0001
     65  CD2      -11.3950   -7.9080   53.1060 C.3   118  LEU118      0.0001
     66  N        -12.5470  -10.0480   60.4370 N.3   121  TYR121     -0.1241
     67  CA       -11.9590   -9.8780   61.7660 C.3   121  TYR121      0.1605
     68  C        -12.9070  -10.1530   62.9400 C.2   121  TYR121      0.2264
     69  O        -12.5140  -10.0390   64.1050 O.2   121  TYR121     -0.2867
     70  CB       -11.3990   -8.4600   61.8750 C.3   121  TYR121      0.0534
     71  CG       -10.6900   -7.9740   60.6320 C.ar  121  TYR121     -0.0201
     72  CD1       -9.4270   -8.4630   60.2890 C.ar  121  TYR121     -0.0009
     73  CD2      -11.2700   -7.0090   59.8080 C.ar  121  TYR121     -0.0009
     74  CE1       -8.7540   -7.9980   59.1620 C.ar  121  TYR121      0.0417
     75  CE2      -10.6090   -6.5370   58.6820 C.ar  121  TYR121      0.0417
     76  CZ        -9.3500   -7.0310   58.3660 C.ar  121  TYR121      0.1957
     77  OH        -8.6730   -6.5330   57.2810 O.3   121  TYR121     -0.2866
     78  N          3.9140    3.9080   53.3780 N.3   167  SER167     -0.1202
     79  CA         2.9670    4.6980   54.1310 C.3   167  SER167      0.2020
     80  C          1.5810    4.6580   53.5150 C.2   167  SER167      0.2619
     81  O          1.3930    5.0600   52.3770 O.2   167  SER167     -0.2717
     82  CB         3.4590    6.1390   54.2340 C.3   167  SER167      0.2103
     83  OG         3.4830    6.7350   52.9720 O.3   167  SER167     -0.2182
     84  N          0.6190    4.1680   54.2920 N.am  168  GLY168     -0.1942
     85  CA        -0.7510    4.0820   53.8200 C.3   168  GLY168      0.2014
     86  C         -1.0510    2.6640   53.4160 C.2   168  GLY168      0.2639
     87  O         -2.1170    2.3990   52.8550 O.2   168  GLY168     -0.2714
     88  N         -0.1140    1.7560   53.7160 N.am  169  ALA169     -0.1963
     89  CA        -0.2380    0.3290   53.3660 C.3   169  ALA169      0.1728
     90  C         -1.1620   -0.5000   54.2330 C.2   169  ALA169      0.2617
     91  O         -2.0690   -1.1670   53.7100 O.2   169  ALA169     -0.2715
     92  CB         1.1250   -0.3190   53.3700 C.3   169  ALA169      0.0334
     93  N         -0.9200   -0.4680   55.5480 N.am  170  GLY170     -0.1940
     94  CA        -1.7380   -1.2310   56.4670 C.3   170  GLY170      0.2014
     95  C         -0.9570   -1.5640   57.7250 C.2   170  GLY170      0.2639
     96  O         -1.4280   -2.3310   58.5740 O.2   170  GLY170     -0.2714
     97  N          0.2380   -0.9940   57.8640 N.am  171  LYS171     -0.1963
     98  CA         1.0500   -1.2810   59.0540 C.3   171  LYS171      0.1728
     99  C          0.2540   -1.1600   60.3660 C.2   171  LYS171      0.2617
    100  O          0.1890   -2.1070   61.1470 O.2   171  LYS171     -0.2715
    101  CB         2.2630   -0.3320   59.1390 C.3   171  LYS171      0.0311
    102  CG         3.2510   -0.4650   57.9930 C.3   171  LYS171      0.0038
    103  CD         4.4370    0.4950   58.0920 C.3   171  LYS171      0.0206
    104  CE         4.0450    1.9480   58.3970 C.3   171  LYS171      0.1093
    105  NZ         3.1760    2.6260   57.3660 N.3   171  LYS171     -0.1314
    106  N         -0.3450    0.0120   60.5980 N.am  172  THR172     -0.1937
    107  CA        -1.1210    0.2950   61.8080 C.3   172  THR172      0.2028
    108  C         -2.3760   -0.5590   61.9580 C.2   172  THR172      0.2642
    109  O         -2.5480   -1.2310   62.9790 O.2   172  THR172     -0.2714
    110  CB        -1.4860    1.7830   61.8460 C.3   172  THR172      0.1808
    111  OG1       -2.2590    2.0830   60.6940 O.3   172  THR172     -0.2208
    112  CG2       -0.2570    2.6690   61.9110 C.3   172  THR172      0.0379
    113  N         -3.2460   -0.5380   60.9580 N.am  173  GLU173     -0.1963
    114  CA        -4.4600   -1.3430   61.0020 C.3   173  GLU173      0.1733
    115  C         -4.1910   -2.7960   61.3920 C.2   173  GLU173      0.2616
    116  O         -4.9050   -3.3860   62.2080 O.2   173  GLU173     -0.2715
    117  CB        -5.1290   -1.3230   59.6510 C.3   173  GLU173      0.0429
    118  CG        -6.5090   -1.8530   59.5870 C.3   173  GLU173      0.1163
    119  CD        -7.0490   -2.0160   58.1680 C.2   173  GLU173      0.3649
    120  OE1       -6.3110   -1.6040   57.2210 O.co2 173  GLU173     -0.2457
    121  OE2       -8.1830   -2.4770   58.0430 O.co2 173  GLU173     -0.2457
    122  N         -3.1520   -3.3650   60.7960 N.am  174  ASN174     -0.1972
    123  CA        -2.7750   -4.7420   61.0580 C.3   174  ASN174      0.1688
    124  C         -2.1290   -4.9220   62.4260 C.2   174  ASN174      0.2292
    125  O         -2.2640   -5.9790   63.0440 O.2   174  ASN174     -0.2864
    126  CB        -1.8180   -5.2320   59.9650 C.3   174  ASN174      0.1181
    127  CG        -2.5440   -5.5460   58.6750 C.2   174  ASN174      0.2629
    128  OD1       -3.6620   -6.0890   58.7110 O.2   174  ASN174     -0.2716
    129  ND2       -1.9470   -5.2020   57.5410 N.am  174  ASN174     -0.0877
    130  N         -1.7890    9.6680   53.9310 N.3   207  ASN207     -0.1240
    131  CA        -2.7100    9.0630   54.9020 C.3   207  ASN207      0.1653
    132  C         -3.5960   10.0370   55.6780 C.2   207  ASN207      0.2266
    133  O         -3.0950   10.9750   56.3040 O.2   207  ASN207     -0.2867
    134  CB        -1.9200    8.2350   55.9210 C.3   207  ASN207      0.1155
    135  CG        -2.6550    7.0050   56.4400 C.2   207  ASN207      0.2627
    136  OD1       -3.8740    6.8160   56.1950 O.2   207  ASN207     -0.2716
    137  ND2       -2.0030    6.1120   57.1840 N.am  207  ASN207     -0.0877
    138  N         -4.9680    9.3930   58.2880 N.3   209  ASN209     -0.1240
    139  CA        -4.6540    9.0980   59.6800 C.3   209  ASN209      0.1653
    140  C         -3.1880    8.6230   59.8080 C.2   209  ASN209      0.2266
    141  O         -2.8660    7.5290   60.3290 O.2   209  ASN209     -0.2867
    142  CB        -5.6250    8.0360   60.2230 C.3   209  ASN209      0.1155
    143  CG        -6.9950    8.5390   60.4590 C.2   209  ASN209      0.2627
    144  OD1       -7.1450    9.4160   61.3190 O.2   209  ASN209     -0.2716
    145  ND2       -7.9640    8.0740   59.7650 N.am  209  ASN209     -0.0877
    146  N          0.3850    8.0190   61.1290 N.3   211  SER211     -0.1217
    147  CA         1.0330    7.8970   62.4250 C.3   211  SER211      0.1889
    148  C          2.3190    8.7190   62.3620 C.2   211  SER211      0.2288
    149  O          3.1590    8.4770   61.4980 O.2   211  SER211     -0.2866
    150  CB         1.3680    6.4320   62.7050 C.3   211  SER211      0.2089
    151  OG         2.0100    6.2280   63.8620 O.3   211  SER211     -0.2183
    152  N         -5.7590    6.1620   46.7850 N.3   618  LYS618     -0.1245
    153  CA        -6.5100    5.9490   48.0140 C.3   618  LYS618      0.1561
    154  C         -7.8710    5.3250   47.7820 C.2   618  LYS618      0.2260
    155  O         -8.6510    5.2490   48.7260 O.2   618  LYS618     -0.2867
    156  CB        -6.7090    7.2690   48.7670 C.3   618  LYS618      0.0271
    157  CG        -5.4170    7.8020   49.4110 C.3   618  LYS618      0.0035
    158  CD        -5.6290    9.1330   50.0890 C.3   618  LYS618      0.0206
    159  CE        -6.4330    8.9850   51.3340 C.3   618  LYS618      0.1093
    160  NZ        -5.6110    8.3330   52.3930 N.3   618  LYS618     -0.1314
@<TRIPOS>BOND
     1   152   153    1
     2   154   153    1
     3   154   155    2
     4   153   156    1
     5   156   157    1
     6    46    44    1
     7    31    33   ar
     8    31    29   ar
     9    43    44    2
    10    43    42    1
    11    33    34   ar
    12   157   158    1
    13    44    45    1
    14    42    41    1
    15    12    11    2
    16    20    19    2
    17    28    29    1
    18    28    25    1
    19    29    30   ar
    20   158   159    1
    21    35    34    1
    22    34    32   ar
    23     1     2    1
    24     7     5    1
    25    27    26    2
    26     2     5    1
    27     2     3    1
    28    19    18    1
    29    19    24   am
    30    11    17   am
    31    11    10    1
    32    41    40    1
    33    30    32   ar
    34    18    17    1
    35    18    21    1
    36     9    10    1
    37   159   160    1
    38    40    37    1
    39    25    26    1
    40    25    24    1
    41    26    36   am
    42     5     6    1
    43     3     4    2
    44    13    10    1
    45    13    14    1
    46    17    23    1
    47    21    22    1
    48    14    16   am
    49    14    15    2
    50    81    80    2
    51    36    37    1
    52    37    38    1
    53    87    86    2
    54     6     8    1
    55    83    82    1
    56    65    63    1
    57    23    22    1
    58    64    63    1
    59    89    92    1
    60    89    88    1
    61    89    90    1
    62    78    79    1
    63    86    88   am
    64    86    85    1
    65    80    79    1
    66    80    84   am
    67    63    62    1
    68    91    90    2
    69    85    84    1
    70    38    39    2
    71    38    47   am
    72   130   131    1
    73    79    82    1
    74    90    93   am
    75    50    49    2
    76    47    48    1
    77   131   132    1
    78   131   134    1
    79    62    59    1
    80    49    48    1
    81    49    58   am
    82    93    94    1
    83    59    58    1
    84    59    60    1
    85   132   133    2
    86    48    51    1
    87   134   135    1
    88   136   135    2
    89   135   137   am
    90    94    95    1
    91    51    52    1
    92    60    61    2
    93   120   119   ar
    94    77    76    1
    95   105   104    1
    96    52    53    1
    97   129   127   am
    98    95    97   am
    99    95    96    2
   100    97    98    1
   101   102   103    1
   102   102   101    1
   103   121   119   ar
   104   103   104    1
   105   119   118    1
   106   138   139    1
   107    76    75   ar
   108    76    74   ar
   109    53    54    1
   110   127   128    2
   111   127   126    1
   112    75    73   ar
   113    56    55    1
   114    98   101    1
   115    98    99    1
   116    74    72   ar
   117    54    55    2
   118   118   117    1
   119   117   114    1
   120   139   140    1
   121   139   142    1
   122    55    57    1
   123   145   143   am
   124   140   141    2
   125    73    71   ar
   126   126   123    1
   127   142   143    1
   128    72    71   ar
   129    99   106   am
   130    99   100    2
   131    66    67    1
   132   143   144    2
   133   106   107    1
   134    71    70    1
   135   111   110    1
   136   122   123    1
   137   122   115   am
   138   113   114    1
   139   113   108   am
   140   114   115    1
   141   123   124    1
   142   146   147    1
   143   115   116    2
   144   149   148    2
   145    67    70    1
   146    67    68    1
   147   107   110    1
   148   107   108    1
   149   110   112    1
   150   108   109    2
   151   148   147    1
   152   147   150    1
   153   124   125    2
   154   150   151    1
   155    68    69    2
