@<TRIPOS>MOLECULE
tmp/1dfoB01.pdb
 146 138 0 0 0
SMALL
GASTEIGER

@<TRIPOS>ATOM
      1  N         18.0340  109.7670   76.7270 N.3    33  ILE33      -0.1245
      2  CA        17.2690  108.5540   76.4540 C.3    33  ILE33       0.1561
      3  C         18.2970  107.4130   76.4220 C.2    33  ILE33       0.2260
      4  O         19.1630  107.3600   75.5530 O.2    33  ILE33      -0.2867
      5  CB        16.5240  108.6680   75.1060 C.3    33  ILE33       0.0252
      6  CG1       15.4120  109.7130   75.2260 C.3    33  ILE33       0.0019
      7  CG2       15.9510  107.3200   74.7000 C.3    33  ILE33       0.0019
      8  CD1       14.7700  110.0840   73.9140 C.3    33  ILE33       0.0001
      9  N         18.3920  104.4780   75.4250 N.3    35  SER35      -0.1217
     10  CA        18.5400  103.6700   74.2190 C.3    35  SER35       0.1889
     11  C         19.0650  104.4070   72.9870 C.2    35  SER35       0.2288
     12  O         19.1860  103.8100   71.9130 O.2    35  SER35      -0.2866
     13  CB        17.2050  102.9950   73.8920 C.3    35  SER35       0.2089
     14  OG        16.1630  103.9500   73.8130 O.3    35  SER35      -0.2183
     15  N         16.0790   94.6050   63.1820 N.3    97  SER97      -0.1202
     16  CA        16.0270   95.2970   64.4590 C.3    97  SER97       0.2020
     17  C         16.1790   94.3200   65.6070 C.2    97  SER97       0.2619
     18  O         16.3580   93.1190   65.3950 O.2    97  SER97      -0.2717
     19  CB        14.6840   95.9930   64.6050 C.3    97  SER97       0.2103
     20  OG        13.6420   95.0270   64.6530 O.3    97  SER97      -0.2182
     21  N         16.0970   94.8500   66.8250 N.am   98  GLY98      -0.1942
     22  CA        16.1970   94.0200   68.0020 C.3    98  GLY98       0.2014
     23  C         14.9670   93.1430   68.0840 C.2    98  GLY98       0.2639
     24  O         15.0610   91.9690   68.4330 O.2    98  GLY98      -0.2714
     25  N         13.8080   93.7080   67.7510 N.am   99  SER99      -0.1949
     26  CA        12.5510   92.9590   67.7880 C.3    99  SER99       0.1924
     27  C         12.5510   91.7990   66.7970 C.2    99  SER99       0.2314
     28  O         12.0640   90.7080   67.1050 O.2    99  SER99      -0.2863
     29  CB        11.3690   93.8840   67.4870 C.3    99  SER99       0.2116
     30  OG        11.2860   94.9250   68.4430 O.3    99  SER99      -0.2180
     31  N         14.8920   89.0660   68.0500 N.3   102  ASN102     -0.1240
     32  CA        14.2560   88.2700   69.0970 C.3   102  ASN102      0.1653
     33  C         13.1910   87.3420   68.5240 C.2   102  ASN102      0.2266
     34  O         13.0710   86.1910   68.9300 O.2   102  ASN102     -0.2867
     35  CB        13.6450   89.1770   70.1710 C.3   102  ASN102      0.1155
     36  CG        14.7050   89.9120   70.9870 C.2   102  ASN102      0.2627
     37  OD1       15.9020   89.7020   70.8030 O.2   102  ASN102     -0.2716
     38  ND2       14.2640   90.7750   71.8960 N.am  102  ASN102     -0.0877
     39  N         11.8800   94.0140   78.4760 N.3   126  HIS126     -0.1241
     40  CA        11.4830   94.6090   77.2040 C.3   126  HIS126      0.1621
     41  C         10.1740   94.0260   76.6950 C.2   126  HIS126      0.2264
     42  O          9.7830   92.9330   77.0990 O.2   126  HIS126     -0.2867
     43  CB        12.5630   94.3840   76.1480 C.3   126  HIS126      0.0745
     44  CG        12.2320   94.9920   74.8230 C.ar  126  HIS126      0.0817
     45  ND1       11.8990   94.2380   73.7180 N.ar  126  HIS126     -0.2268
     46  CD2       12.1300   96.2870   74.4400 C.ar  126  HIS126      0.1154
     47  CE1       11.6060   95.0430   72.7120 C.ar  126  HIS126      0.1986
     48  NE2       11.7390   96.2920   73.1240 N.ar  126  HIS126     -0.2212
     49  N          9.9180   90.5460   75.6620 N.3   129  HIS129     -0.1241
     50  CA        10.2610   89.5860   76.7090 C.3   129  HIS129      0.1621
     51  C          9.0080   89.0530   77.3930 C.2   129  HIS129      0.2264
     52  O          9.0740   88.5290   78.5090 O.2   129  HIS129     -0.2867
     53  CB        11.1840   90.2250   77.7510 C.3   129  HIS129      0.0745
     54  CG        12.5290   90.6030   77.2170 C.ar  129  HIS129      0.0817
     55  ND1       13.4260   91.3620   77.9350 N.ar  129  HIS129     -0.2268
     56  CD2       13.1210   90.3470   76.0270 C.ar  129  HIS129      0.1154
     57  CE1       14.5130   91.5600   77.2090 C.ar  129  HIS129      0.1986
     58  NE2       14.3530   90.9550   76.0460 N.ar  129  HIS129     -0.2212
     59  N         17.2230   93.0830   79.6160 N.3   174  PHE174     -0.1227
     60  CA        16.3320   94.1110   80.1190 C.3   174  PHE174      0.1736
     61  C         16.4110   95.3980   79.3050 C.2   174  PHE174      0.2596
     62  O         17.3260   95.5880   78.5010 O.2   174  PHE174     -0.2718
     63  CB        16.7400   94.3940   81.5580 C.3   174  PHE174      0.0547
     64  CG        18.2150   94.6670   81.7040 C.ar  174  PHE174     -0.0202
     65  CD1       18.7450   95.9060   81.3610 C.ar  174  PHE174     -0.0042
     66  CD2       19.0840   93.6570   82.0960 C.ar  174  PHE174     -0.0042
     67  CE1       20.1150   96.1320   81.4000 C.ar  174  PHE174     -0.0003
     68  CE2       20.4560   93.8740   82.1370 C.ar  174  PHE174     -0.0003
     69  CZ        20.9710   95.1160   81.7870 C.ar  174  PHE174     -0.0000
     70  N         15.4450   96.2810   79.5350 N.am  175  SER175     -0.1952
     71  CA        15.3990   97.5730   78.8670 C.3   175  SER175      0.1924
     72  C         15.5770   98.6750   79.9060 C.2   175  SER175      0.2314
     73  O         15.9900   99.7870   79.5700 O.2   175  SER175     -0.2863
     74  CB        14.0540   97.7810   78.1580 C.3   175  SER175      0.2116
     75  OG        13.9210   96.9570   77.0170 O.3   175  SER175     -0.2180
     76  N         19.1610   88.7120   75.8690 N.3   200  ASP200     -0.1239
     77  CA        19.0030   89.8780   75.0130 C.3   200  ASP200      0.1674
     78  C         19.8540   90.9630   75.6700 C.2   200  ASP200      0.2266
     79  O         19.4270   91.5630   76.6590 O.2   200  ASP200     -0.2867
     80  CB        17.5370   90.3090   75.0060 C.3   200  ASP200      0.1410
     81  CG        17.2830   91.5270   74.1380 C.2   200  ASP200      0.3668
     82  OD1       18.2530   92.2220   73.7580 O.co2 200  ASP200     -0.2456
     83  OD2       16.0950   91.7940   73.8500 O.co2 200  ASP200     -0.2456
     84  N         20.8450   93.8300   74.2520 N.3   202  ALA202     -0.1231
     85  CA        20.7200   95.0630   73.4810 C.3   202  ALA202      0.1694
     86  C         21.2560   96.3220   74.1670 C.2   202  ALA202      0.2592
     87  O         22.0700   97.0460   73.5970 O.2   202  ALA202     -0.2718
     88  CB        19.2770   95.2700   73.0850 C.3   202  ALA202      0.0304
     89  N         20.8160   96.5820   75.3900 N.am  203  HIS203     -0.1976
     90  CA        21.2580   97.7750   76.1000 C.3   203  HIS203      0.1656
     91  C         22.7180   97.8300   76.5230 C.2   203  HIS203      0.2291
     92  O         23.3390   98.8930   76.4680 O.2   203  HIS203     -0.2864
     93  CB        20.3880   98.0110   77.3310 C.3   203  HIS203      0.0771
     94  CG        19.3070   99.0200   77.1140 C.ar  203  HIS203      0.0820
     95  ND1       18.1100   98.7120   76.5070 N.ar  203  HIS203     -0.2267
     96  CD2       19.2630  100.3480   77.3810 C.ar  203  HIS203      0.1154
     97  CE1       17.3730   99.8040   76.4090 C.ar  203  HIS203      0.1986
     98  NE2       18.0500  100.8110   76.9320 N.ar  203  HIS203     -0.2212
     99  N         20.9970   94.8090   69.7250 N.3   226  THR226     -0.1218
    100  CA        20.7440   95.7770   68.6810 C.3   226  THR226      0.1862
    101  C         22.1300   96.3860   68.4540 C.2   226  THR226      0.2287
    102  O         23.0470   96.1750   69.2510 O.2   226  THR226     -0.2866
    103  CB        19.7560   96.8530   69.1260 C.3   226  THR226      0.1770
    104  OG1       20.2040   97.4360   70.3540 O.3   226  THR226     -0.2211
    105  CG2       18.3790   96.2480   69.3120 C.3   226  THR226      0.0375
    106  N         22.4180   99.7410   67.6970 N.3   228  HIS228     -0.1226
    107  CA        22.2750  101.1850   67.8500 C.3   228  HIS228      0.1752
    108  C         22.2070  101.8010   69.2430 C.2   228  HIS228      0.2595
    109  O         21.9880  103.0100   69.3560 O.2   228  HIS228     -0.2718
    110  CB        21.0530  101.6630   67.0660 C.3   228  HIS228      0.0759
    111  CG        19.7790  100.9840   67.4570 C.ar  228  HIS228      0.0818
    112  ND1       19.4520   99.7130   67.0380 N.ar  228  HIS228     -0.2268
    113  CD2       18.7470  101.4020   68.2280 C.ar  228  HIS228      0.1154
    114  CE1       18.2720   99.3780   67.5290 C.ar  228  HIS228      0.1986
    115  NE2       17.8220  100.3860   68.2570 N.ar  228  HIS228     -0.2212
    116  N         22.3650  101.0110   70.3020 N.am  229  LYS229     -0.1980
    117  CA        22.3190  101.6060   71.6370 C.3   229  LYS229      0.1596
    118  C         23.7270  101.9120   72.1320 C.2   229  LYS229      0.2287
    119  O         24.3980  102.7830   71.5750 O.2   229  LYS229     -0.2864
    120  CB        21.5830  100.6930   72.6100 C.3   229  LYS229      0.0298
    121  CG        20.1310  100.4880   72.2220 C.3   229  LYS229      0.0038
    122  CD        19.3960   99.6340   73.2340 C.3   229  LYS229      0.0206
    123  CE        17.9610   99.4080   72.8120 C.3   229  LYS229      0.1093
    124  NZ        17.8920   98.6310   71.5480 N.3   229  LYS229     -0.1314
    125  N         20.8110  101.4320   63.3060 N.3   235  ARG235     -0.1245
    126  CA        19.6690  100.7510   63.9080 C.3   235  ARG235      0.1563
    127  C         19.5360   99.3710   63.2580 C.2   235  ARG235      0.2260
    128  O         19.3740   99.2590   62.0410 O.2   235  ARG235     -0.2867
    129  CB        18.3820  101.5460   63.6900 C.3   235  ARG235      0.0307
    130  CG        18.5020  103.0240   63.9890 C.3   235  ARG235      0.0489
    131  CD        17.1250  103.6720   64.0200 C.3   235  ARG235      0.2205
    132  NE        16.4150  103.3070   65.2360 N.pl3 235  ARG235     -0.0865
    133  CZ        16.6300  103.8730   66.4160 C.cat 235  ARG235      0.5346
    134  NH1       17.5240  104.8420   66.5380 N.pl3 235  ARG235      0.1354
    135  NH2       15.9630  103.4520   67.4780 N.pl3 235  ARG235      0.1354
    136  N         13.4100  107.3750   82.7210 N.3   363  ARG363     -0.1245
    137  CA        14.6310  106.5950   82.5900 C.3   363  ARG363      0.1563
    138  C         15.7230  107.5440   82.1030 C.2   363  ARG363      0.2260
    139  O         15.4790  108.3880   81.2430 O.2   363  ARG363     -0.2867
    140  CB        14.4240  105.4550   81.5910 C.3   363  ARG363      0.0307
    141  CG        15.5740  104.4720   81.5200 C.3   363  ARG363      0.0489
    142  CD        15.3010  103.3990   80.4750 C.3   363  ARG363      0.2205
    143  NE        15.1040  103.9830   79.1510 N.pl3 363  ARG363     -0.0865
    144  CZ        14.8610  103.2840   78.0460 C.cat 363  ARG363      0.5346
    145  NH1       14.7860  101.9630   78.0990 N.pl3 363  ARG363      0.1354
    146  NH2       14.6800  103.9100   76.8890 N.pl3 363  ARG363      0.1354
@<TRIPOS>BOND
     1   128   127    2
     2    15    16    1
     3   127   126    1
     4   125   126    1
     5   129   126    1
     6   129   130    1
     7   130   131    1
     8   131   132    1
     9    16    19    1
    10    16    17    1
    11    19    20    1
    12   132   133    2
    13    18    17    2
    14    17    21   am
    15   133   134    1
    16   133   135    1
    17    27    28    2
    18    27    26    1
    19    21    22    1
    20   112   111   ar
    21   112   114   ar
    22   110   111    1
    23   110   107    1
    24   111   113   ar
    25    29    26    1
    26    29    30    1
    27   114   115   ar
    28   106   107    1
    29    25    26    1
    30    25    23   am
    31   107   108    1
    32    22    23    1
    33    31    32    1
    34    23    24    2
    35   113   115   ar
    36   101   100    1
    37   101   102    2
    38    33    34    2
    39    33    32    1
    40   100   103    1
    41   100    99    1
    42    32    35    1
    43   103   105    1
    44   103   104    1
    45   108   109    2
    46   108   116   am
    47    35    36    1
    48   116   117    1
    49    37    36    2
    50    36    38   am
    51   124   123    1
    52   119   118    2
    53   117   118    1
    54   117   120    1
    55    12    11    2
    56   121   120    1
    57   121   122    1
    58    47    48   ar
    59    47    45   ar
    60   123   122    1
    61    11    10    1
    62    88    85    1
    63    48    46   ar
    64    85    86    1
    65    85    84    1
    66    87    86    2
    67    45    44   ar
    68    82    81   ar
    69    14    13    1
    70    83    81   ar
    71    13    10    1
    72     8     6    1
    73    81    80    1
    74    86    89   am
    75    10     9    1
    76    46    44   ar
    77     7     5    1
    78    44    43    1
    79    80    77    1
    80    77    78    1
    81    77    76    1
    82     5     6    1
    83     5     2    1
    84    89    90    1
    85     4     3    2
    86    49    50    1
    87    78    79    2
    88    56    58   ar
    89    56    54   ar
    90    58    57   ar
    91    90    91    1
    92    90    93    1
    93    43    40    1
    94    97    95   ar
    95    97    98   ar
    96     3     2    1
    97     2     1    1
    98    92    91    2
    99    95    94   ar
   100    41    42    2
   101    41    40    1
   102    50    51    1
   103    50    53    1
   104   146   144    1
   105    98    96   ar
   106    75    74    1
   107    94    93    1
   108    94    96   ar
   109    40    39    1
   110    57    55   ar
   111    54    53    1
   112    54    55   ar
   113    51    52    2
   114   144   145    1
   115   144   143    2
   116    74    71    1
   117    62    61    2
   118    71    70    1
   119    71    72    1
   120   143   142    1
   121    61    70   am
   122    61    60    1
   123    73    72    2
   124    59    60    1
   125    60    63    1
   126   142   141    1
   127   139   138    2
   128    65    67   ar
   129    65    64   ar
   130    67    69   ar
   131   141   140    1
   132    63    64    1
   133   140   137    1
   134    64    66   ar
   135    69    68   ar
   136    66    68   ar
   137   138   137    1
   138   137   136    1
