@<TRIPOS>MOLECULE
tmp/1dfoB02.pdb
 139 134 0 0 0
SMALL
GASTEIGER

@<TRIPOS>ATOM
      1  N          7.7770   93.7040   82.1240 N.3   121  LEU121     -0.1231
      2  CA         8.0770   95.0420   81.6190 C.3   121  LEU121      0.1693
      3  C          8.2590   96.1370   82.6770 C.2   121  LEU121      0.2591
      4  O          9.2940   96.8140   82.6990 O.2   121  LEU121     -0.2718
      5  CB         7.0180   95.4750   80.5950 C.3   121  LEU121      0.0284
      6  CG         7.3920   96.7030   79.7520 C.3   121  LEU121      0.0019
      7  CD1        6.9930   96.4810   78.3070 C.3   121  LEU121      0.0001
      8  CD2        6.7310   97.9530   80.3240 C.3   121  LEU121      0.0001
      9  N          7.2700   96.3180   83.5470 N.am  122  ALA122     -0.1980
     10  CA         7.3660   97.3460   84.5860 C.3   122  ALA122      0.1597
     11  C          8.6430   97.2000   85.4210 C.2   122  ALA122      0.2287
     12  O          9.2370   98.1960   85.8500 O.2   122  ALA122     -0.2864
     13  CB         6.1350   97.2990   85.4910 C.3   122  ALA122      0.0319
     14  N         11.4900   96.1900   84.3700 N.3   124  GLY124     -0.1210
     15  CA        12.7040   96.3660   83.5870 C.3   124  GLY124      0.1956
     16  C         12.8370   95.5440   82.3190 C.2   124  GLY124      0.2612
     17  O         13.7950   95.7300   81.5610 O.2   124  GLY124     -0.2717
     18  N         11.8880   94.6400   82.0830 N.am  125  GLY125     -0.1942
     19  CA        11.9410   93.8100   80.8930 C.3   125  GLY125      0.2014
     20  C         11.4700   94.5220   79.6350 C.2   125  GLY125      0.2639
     21  O         10.7440   95.5140   79.7060 O.2   125  GLY125     -0.2714
     22  N         11.8800   94.0140   78.4760 N.am  126  HIS126     -0.1959
     23  CA        11.4830   94.6090   77.2040 C.3   126  HIS126      0.1787
     24  C         10.1740   94.0260   76.6950 C.2   126  HIS126      0.2620
     25  O          9.7830   92.9330   77.0990 O.2   126  HIS126     -0.2715
     26  CB        12.5630   94.3840   76.1480 C.3   126  HIS126      0.0785
     27  CG        12.2320   94.9920   74.8230 C.ar  126  HIS126      0.0821
     28  ND1       11.8990   94.2380   73.7180 N.ar  126  HIS126     -0.2267
     29  CD2       12.1300   96.2870   74.4400 C.ar  126  HIS126      0.1154
     30  CE1       11.6060   95.0430   72.7120 C.ar  126  HIS126      0.1986
     31  NE2       11.7390   96.2920   73.1240 N.ar  126  HIS126     -0.2212
     32  N          9.5080   94.7600   75.8060 N.am  127  LEU127     -0.1977
     33  CA         8.2400   94.3250   75.2150 C.3   127  LEU127      0.1596
     34  C          8.3020   92.8980   74.6750 C.2   127  LEU127      0.2287
     35  O          7.3910   92.0930   74.9030 O.2   127  LEU127     -0.2864
     36  CB         7.8450   95.2580   74.0690 C.3   127  LEU127      0.0297
     37  CG         7.2460   96.6160   74.4210 C.3   127  LEU127      0.0022
     38  CD1        7.3880   97.5630   73.2400 C.3   127  LEU127      0.0001
     39  CD2        5.7880   96.4360   74.8070 C.3   127  LEU127      0.0001
     40  N          5.5260   90.8410   76.9620 N.3   131  SER131     -0.1217
     41  CA         4.3670   91.7290   77.0260 C.3   131  SER131      0.1889
     42  C          3.1800   91.1630   76.2550 C.2   131  SER131      0.2288
     43  O          3.3330   90.6770   75.1320 O.2   131  SER131     -0.2866
     44  CB         4.7020   93.1060   76.4680 C.3   131  SER131      0.2089
     45  OG         3.5360   93.9130   76.4580 O.3   131  SER131     -0.2183
     46  N          0.9000   92.6560   74.7440 N.3   133  VAL133     -0.1245
     47  CA         0.5610   93.4610   73.5710 C.3   133  VAL133      0.1561
     48  C          1.6020   93.2730   72.4770 C.2   133  VAL133      0.2260
     49  O          1.5250   93.9000   71.4250 O.2   133  VAL133     -0.2867
     50  CB         0.4740   94.9740   73.9040 C.3   133  VAL133      0.0252
     51  CG1       -0.6020   95.2170   74.9380 C.3   133  VAL133      0.0019
     52  CG2        1.8150   95.4850   74.4000 C.3   133  VAL133      0.0019
     53  N         15.4450   96.2810   79.5350 N.3   175  SER175     -0.1202
     54  CA        15.3990   97.5730   78.8670 C.3   175  SER175      0.2020
     55  C         15.5770   98.6750   79.9060 C.2   175  SER175      0.2618
     56  O         15.9900   99.7870   79.5700 O.2   175  SER175     -0.2717
     57  CB        14.0540   97.7810   78.1580 C.3   175  SER175      0.2103
     58  OG        13.9210   96.9570   77.0170 O.3   175  SER175     -0.2182
     59  N         15.2670   98.3600   81.1660 N.am  176  ALA176     -0.1979
     60  CA        15.3670   99.3520   82.2350 C.3   176  ALA176      0.1597
     61  C         15.7800   98.8180   83.6120 C.2   176  ALA176      0.2287
     62  O         15.1330   99.0970   84.6170 O.2   176  ALA176     -0.2864
     63  CB        14.0440  100.1000   82.3510 C.3   176  ALA176      0.0319
     64  N         20.8160   96.5820   75.3900 N.3   203  HIS203     -0.1241
     65  CA        21.2580   97.7750   76.1000 C.3   203  HIS203      0.1621
     66  C         22.7180   97.8300   76.5230 C.2   203  HIS203      0.2264
     67  O         23.3390   98.8930   76.4680 O.2   203  HIS203     -0.2867
     68  CB        20.3880   98.0110   77.3310 C.3   203  HIS203      0.0745
     69  CG        19.3070   99.0200   77.1140 C.ar  203  HIS203      0.0817
     70  ND1       18.1100   98.7120   76.5070 N.ar  203  HIS203     -0.2268
     71  CD2       19.2630  100.3480   77.3810 C.ar  203  HIS203      0.1154
     72  CE1       17.3730   99.8040   76.4090 C.ar  203  HIS203      0.1986
     73  NE2       18.0500  100.8110   76.9320 N.ar  203  HIS203     -0.2212
     74  N         12.8260  110.0070   78.5970 N.3   345  ASN345     -0.1225
     75  CA        11.6110  109.3250   78.1890 C.3   345  ASN345      0.1785
     76  C         10.8930  108.8290   79.4300 C.2   345  ASN345      0.2597
     77  O         11.5240  108.3410   80.3660 O.2   345  ASN345     -0.2718
     78  CB        11.8750  108.1710   77.1900 C.3   345  ASN345      0.1169
     79  CG        12.5470  106.9640   77.8190 C.2   345  ASN345      0.2627
     80  OD1       13.7540  106.7640   77.6680 O.2   345  ASN345     -0.2716
     81  ND2       11.7670  106.1440   78.5190 N.am  345  ASN345     -0.0877
     82  N          9.5760  109.0240   79.4590 N.am  346  LYS346     -0.1966
     83  CA         8.7570  108.5570   80.5690 C.3   346  LYS346      0.1728
     84  C          9.0020  107.0520   80.6070 C.2   346  LYS346      0.2616
     85  O          9.2530  106.4350   79.5700 O.2   346  LYS346     -0.2715
     86  CB         7.2860  108.8520   80.2870 C.3   346  LYS346      0.0311
     87  CG         6.7970  108.2610   78.9780 C.3   346  LYS346      0.0038
     88  CD         5.4780  108.8730   78.5400 C.3   346  LYS346      0.0206
     89  CE         5.0690  108.3540   77.1730 C.3   346  LYS346      0.1093
     90  NZ         3.8360  109.0200   76.6840 N.3   346  LYS346     -0.1314
     91  N          8.9390  106.4530   81.7870 N.am  347  ASN347     -0.1958
     92  CA         9.1950  105.0250   81.8750 C.3   347  ASN347      0.1819
     93  C          8.4830  104.3920   83.0610 C.2   347  ASN347      0.2622
     94  O          8.4300  104.9630   84.1430 O.2   347  ASN347     -0.2715
     95  CB        10.6990  104.7820   82.0010 C.3   347  ASN347      0.1195
     96  CG        11.1490  103.5210   81.2980 C.2   347  ASN347      0.2630
     97  OD1       11.6520  103.5740   80.1730 O.2   347  ASN347     -0.2716
     98  ND2       10.9670  102.3750   81.9530 N.am  347  ASN347     -0.0877
     99  N          7.9320  103.2060   82.8490 N.am  348  SER348     -0.1950
    100  CA         7.2480  102.4980   83.9190 C.3   348  SER348      0.1924
    101  C          8.2970  102.1580   84.9660 C.2   348  SER348      0.2314
    102  O          9.4940  102.0490   84.6580 O.2   348  SER348     -0.2863
    103  CB         6.6310  101.1950   83.4000 C.3   348  SER348      0.2116
    104  OG         5.8020  101.4250   82.2790 O.3   348  SER348     -0.2180
    105  N         -0.3880  103.5150   83.6950 N.3   355  SER355     -0.1203
    106  CA        -0.2000  102.7260   82.4840 C.3   355  SER355      0.2005
    107  C          1.0710  103.1840   81.7720 C.2   355  SER355      0.2461
    108  O          1.5470  104.2950   81.9950 O.2   355  SER355     -0.2732
    109  CB        -1.4010  102.8840   81.5510 C.3   355  SER355      0.2103
    110  OG        -1.4970  104.2120   81.0700 O.3   355  SER355     -0.2182
    111  N          1.6290  102.3290   80.8980 N.am  356  PRO356     -0.2717
    112  CA         2.8500  102.5840   80.1230 C.3   356  PRO356      0.1535
    113  C          2.9460  103.9100   79.3580 C.2   356  PRO356      0.2598
    114  O          4.0500  104.4120   79.1320 O.2   356  PRO356     -0.2715
    115  CB         2.9180  101.3810   79.1890 C.3   356  PRO356      0.0310
    116  CG         2.3130  100.2900   80.0140 C.3   356  PRO356      0.0237
    117  CD         1.1060  100.9810   80.6060 C.3   356  PRO356      0.0939
    118  N          1.8150  104.4780   78.9490 N.am  357  PHE357     -0.1974
    119  CA         1.8690  105.7400   78.2190 C.3   357  PHE357      0.1639
    120  C          1.9740  106.9270   79.1780 C.2   357  PHE357      0.2290
    121  O          2.3880  108.0220   78.7850 O.2   357  PHE357     -0.2864
    122  CB         0.6370  105.9120   77.3200 C.3   357  PHE357      0.0560
    123  CG         0.8160  106.9650   76.2550 C.ar  357  PHE357     -0.0200
    124  CD1        1.6860  106.7480   75.1830 C.ar  357  PHE357     -0.0042
    125  CD2        0.1490  108.1900   76.3410 C.ar  357  PHE357     -0.0042
    126  CE1        1.8920  107.7390   74.2090 C.ar  357  PHE357     -0.0003
    127  CE2        0.3470  109.1890   75.3730 C.ar  357  PHE357     -0.0003
    128  CZ         1.2220  108.9610   74.3050 C.ar  357  PHE357     -0.0000
    129  N         13.4100  107.3750   82.7210 N.3   363  ARG363     -0.1245
    130  CA        14.6310  106.5950   82.5900 C.3   363  ARG363      0.1563
    131  C         15.7230  107.5440   82.1030 C.2   363  ARG363      0.2260
    132  O         15.4790  108.3880   81.2430 O.2   363  ARG363     -0.2867
    133  CB        14.4240  105.4550   81.5910 C.3   363  ARG363      0.0307
    134  CG        15.5740  104.4720   81.5200 C.3   363  ARG363      0.0489
    135  CD        15.3010  103.3990   80.4750 C.3   363  ARG363      0.2205
    136  NE        15.1040  103.9830   79.1510 N.pl3 363  ARG363     -0.0865
    137  CZ        14.8610  103.2840   78.0460 C.cat 363  ARG363      0.5346
    138  NH1       14.7860  101.9630   78.0990 N.pl3 363  ARG363      0.1354
    139  NH2       14.6800  103.9100   76.8890 N.pl3 363  ARG363      0.1354
@<TRIPOS>BOND
     1    49    48    2
     2    48    47    1
     3    30    31   ar
     4    30    28   ar
     5    31    29   ar
     6    38    37    1
     7    47    50    1
     8    47    46    1
     9    28    27   ar
    10    50    52    1
    11    50    51    1
    12    36    37    1
    13    36    33    1
    14   126   128   ar
    15   126   124   ar
    16   128   127   ar
    17    37    39    1
    18    29    27   ar
    19    34    35    2
    20    34    33    1
    21    27    26    1
    22    43    42    2
    23   124   123   ar
    24    33    32    1
    25   127   125   ar
    26    64    65    1
    27    32    24   am
    28    65    66    1
    29    65    68    1
    30    26    23    1
    31    42    41    1
    32   123   125   ar
    33   123   122    1
    34    72    70   ar
    35    72    73   ar
    36    45    44    1
    37    44    41    1
    38    67    66    2
    39    70    69   ar
    40    90    89    1
    41    24    25    2
    42    24    23    1
    43   139   137    1
    44    73    71   ar
    45    40    41    1
    46    58    57    1
    47    69    68    1
    48    69    71   ar
    49    89    88    1
    50    78    79    1
    51    78    75    1
    52    23    22    1
    53   122   119    1
    54    80    79    2
    55    79    81   am
    56   137   138    1
    57   137   136    2
    58    57    54    1
    59    75    74    1
    60    75    76    1
    61   119   118    1
    62   119   120    1
    63     7     6    1
    64    22    20   am
    65    88    87    1
    66   121   120    2
    67    54    53    1
    68    54    55    1
    69   118   113   am
    70    87    86    1
    71   114   113    2
    72   136   135    1
    73   115   116    1
    74   115   112    1
    75   113   112    1
    76    76    82   am
    77    76    77    2
    78    82    83    1
    79    85    84    2
    80    56    55    2
    81    20    21    2
    82    20    19    1
    83     6     8    1
    84     6     5    1
    85    55    59   am
    86   116   117    1
    87   112   111    1
    88    97    96    2
    89    86    83    1
    90   135   134    1
    91    83    84    1
    92     5     2    1
    93   117   111    1
    94    84    91   am
    95    19    18    1
    96   111   107   am
    97   110   109    1
    98    59    60    1
    99   132   131    2
   100    96    98   am
   101    96    95    1
   102   134   133    1
   103   109   106    1
   104    17    16    2
   105   133   130    1
   106     2     1    1
   107     2     3    1
   108   107   108    2
   109   107   106    1
   110    91    92    1
   111    92    95    1
   112    92    93    1
   113    18    16   am
   114   131   130    1
   115    60    63    1
   116    60    61    1
   117   104   103    1
   118    16    15    1
   119   106   105    1
   120   130   129    1
   121     3     4    2
   122     3     9   am
   123    99    93   am
   124    99   100    1
   125    93    94    2
   126   103   100    1
   127     9    10    1
   128    15    14    1
   129    61    62    2
   130   100   101    1
   131    10    11    1
   132    10    13    1
   133   102   101    2
   134    11    12    2
