@<TRIPOS>MOLECULE
tmp/1dfpB00.pdb
 116 114 0 0 0
SMALL
GASTEIGER

@<TRIPOS>ATOM
      1  N         -5.1280  -22.8450   -8.6830 N.3    25  LEU25      -0.1231
      2  CA        -4.1040  -23.6870   -8.1050 C.3    25  LEU25       0.1693
      3  C         -3.5950  -23.0810   -6.8020 C.2    25  LEU25       0.2592
      4  O         -3.6480  -23.7200   -5.7490 O.2    25  LEU25      -0.2718
      5  CB        -2.9510  -23.8600   -9.0910 C.3    25  LEU25       0.0284
      6  CG        -1.7550  -24.6800   -8.5970 C.3    25  LEU25       0.0019
      7  CD1       -2.1580  -26.1150   -8.3950 C.3    25  LEU25       0.0001
      8  CD2       -0.6290  -24.5850   -9.5880 C.3    25  LEU25       0.0001
      9  N         -3.1160  -21.8410   -6.8810 N.am   26  CYS26      -0.1970
     10  CA        -2.5800  -21.1330   -5.7230 C.3    26  CYS26       0.1712
     11  C         -3.0110  -19.6940   -5.7590 C.2    26  CYS26       0.2296
     12  O         -3.6990  -19.2690   -6.6810 O.2    26  CYS26      -0.2864
     13  CB        -1.0470  -21.1620   -5.7350 C.3    26  CYS26       0.0983
     14  SG        -0.2750  -22.6760   -5.0770 S.3    26  CYS26      -0.0798
     15  N          6.7930  -23.6780   -4.7360 N.3    41  HIS41      -0.1226
     16  CA         6.2920  -25.0470   -4.7750 C.3    41  HIS41       0.1752
     17  C          4.9630  -25.2380   -5.4880 C.2    41  HIS41       0.2596
     18  O          4.6240  -26.3470   -5.8810 O.2    41  HIS41      -0.2718
     19  CB         6.2360  -25.6330   -3.3660 C.3    41  HIS41       0.0759
     20  CG         7.5770  -25.7130   -2.6920 C.ar   41  HIS41       0.0818
     21  ND1        8.7640  -25.8010   -3.3940 N.ar   41  HIS41      -0.2268
     22  CD2        7.9190  -25.7050   -1.3810 C.ar   41  HIS41       0.1154
     23  CE1        9.7720  -25.8460   -2.5440 C.ar   41  HIS41       0.1986
     24  NE2        9.2860  -25.7880   -1.3170 N.ar   41  HIS41      -0.2212
     25  N          4.2200  -24.1570   -5.6730 N.am   42  CYS42      -0.1970
     26  CA         2.9430  -24.2340   -6.3470 C.3    42  CYS42       0.1712
     27  C          3.1240  -24.8360   -7.7340 C.2    42  CYS42       0.2296
     28  O          2.3500  -25.6950   -8.1630 O.2    42  CYS42      -0.2864
     29  CB         2.3590  -22.8370   -6.4870 C.3    42  CYS42       0.0983
     30  SG         1.6660  -22.1730   -4.9540 S.3    42  CYS42      -0.0798
     31  N         -4.6150  -20.9970    7.1210 N.3   178  SER178     -0.1202
     32  CA        -4.5980  -20.9860    5.6770 C.3   178  SER178      0.2020
     33  C         -4.4880  -22.4690    5.3880 C.2   178  SER178      0.2619
     34  O         -3.9760  -23.2350    6.2280 O.2   178  SER178     -0.2717
     35  CB        -3.3860  -20.2280    5.1430 C.3   178  SER178      0.2103
     36  OG        -2.2440  -20.5510    5.8940 O.3   178  SER178     -0.2182
     37  N         -4.8950  -22.8530    4.1800 N.am  179  CYS179     -0.1955
     38  CA        -4.9120  -24.2460    3.7830 C.3   179  CYS179      0.1843
     39  C         -4.5640  -24.4380    2.3400 C.2   179  CYS179      0.2625
     40  O         -4.3040  -23.4750    1.6270 O.2   179  CYS179     -0.2714
     41  CB        -6.3110  -24.8160    3.9600 C.3   179  CYS179      0.0997
     42  SG        -6.6950  -25.4440    5.6070 S.3   179  CYS179     -0.0797
     43  N         -4.6630  -25.6990    1.9190 N.am  180  LYS180     -0.1963
     44  CA        -4.4250  -26.1500    0.5630 C.3   180  LYS180      0.1728
     45  C         -5.1620  -25.2250   -0.4020 C.2   180  LYS180      0.2617
     46  O         -6.3760  -25.0130   -0.2780 O.2   180  LYS180     -0.2715
     47  CB        -4.9380  -27.5950    0.4240 C.3   180  LYS180      0.0311
     48  CG        -4.7390  -28.2320   -0.9510 C.3   180  LYS180      0.0038
     49  CD        -5.5520  -29.5300   -1.1510 C.3   180  LYS180      0.0206
     50  CE        -4.9270  -30.7460   -0.4570 C.3   180  LYS180      0.1093
     51  NZ        -3.6560  -31.2650   -1.0790 N.3   180  LYS180     -0.1314
     52  N         -4.3960  -24.6480   -1.3210 N.am  181  GLY181     -0.1940
     53  CA        -4.9200  -23.7350   -2.3140 C.3   181  GLY181      0.2014
     54  C         -4.7280  -22.2880   -1.9070 C.2   181  GLY181      0.2639
     55  O         -4.9870  -21.3820   -2.6970 O.2   181  GLY181     -0.2714
     56  N         -4.3320  -22.0610   -0.6560 N.am  182  ASP182     -0.1957
     57  CA        -4.1010  -20.7110   -0.1440 C.3   182  ASP182      0.1840
     58  C         -2.6510  -20.2820   -0.3370 C.2   182  ASP182      0.2622
     59  O         -2.3470  -19.0810   -0.3080 O.2   182  ASP182     -0.2715
     60  CB        -4.4730  -20.5910    1.3450 C.3   182  ASP182      0.1450
     61  CG        -5.9770  -20.7220    1.6040 C.2   182  ASP182      0.3671
     62  OD1       -6.7940  -20.2400    0.7960 O.co2 182  ASP182     -0.2456
     63  OD2       -6.3510  -21.2990    2.6420 O.co2 182  ASP182     -0.2456
     64  N         -1.7660  -21.2560   -0.5600 N.am  183  SER183     -0.1950
     65  CA        -0.3390  -20.9790   -0.7700 C.3   183  SER183      0.1924
     66  C         -0.1060  -19.8500   -1.7530 C.2   183  SER183      0.2314
     67  O         -0.8560  -19.6940   -2.7050 O.2   183  SER183     -0.2863
     68  CB         0.3870  -22.2190   -1.2760 C.3   183  SER183      0.2116
     69  OG         0.3960  -23.1610   -0.2130 O.3   183  SER183     -0.2180
     70  N          2.0480  -16.8090    1.8750 N.3   197  VAL197     -0.1231
     71  CA         1.7500  -18.1150    2.4310 C.3   197  VAL197      0.1692
     72  C          2.6730  -19.1690    1.8500 C.2   197  VAL197      0.2593
     73  O          2.7390  -19.3700    0.6330 O.2   197  VAL197     -0.2718
     74  CB         0.2680  -18.5140    2.2190 C.3   197  VAL197      0.0266
     75  CG1        0.0050  -19.8880    2.7750 C.3   197  VAL197      0.0020
     76  CG2       -0.6450  -17.5330    2.9100 C.3   197  VAL197      0.0020
     77  N          3.3860  -19.8370    2.7490 N.am  198  THR198     -0.1939
     78  CA         4.3300  -20.8940    2.3990 C.3   198  THR198      0.2028
     79  C          3.5680  -22.1410    1.9350 C.2   198  THR198      0.2643
     80  O          2.5500  -22.5100    2.5330 O.2   198  THR198     -0.2714
     81  CB         5.2370  -21.2500    3.6280 C.3   198  THR198      0.1808
     82  OG1        6.0680  -20.1250    3.9590 O.3   198  THR198     -0.2208
     83  CG2        6.1550  -22.4270    3.3290 C.3   198  THR198      0.0379
     84  N          4.0130  -22.7250    0.8190 N.am  199  SER199     -0.1935
     85  CA         3.4170  -23.9490    0.2850 C.3   199  SER199      0.2055
     86  C          4.1800  -25.1460    0.8330 C.2   199  SER199      0.2644
     87  O          5.4100  -25.1500    0.8870 O.2   199  SER199     -0.2714
     88  CB         3.4500  -23.9620   -1.2440 C.3   199  SER199      0.2130
     89  OG         4.7360  -23.6550   -1.7550 O.3   199  SER199     -0.2179
     90  N          3.4430  -26.1360    1.2970 N.am  200  GLY200     -0.1939
     91  CA         4.0460  -27.3250    1.8510 C.3   200  GLY200      0.2014
     92  C          2.9280  -28.2610    2.2410 C.2   200  GLY200      0.2640
     93  O          1.7610  -27.8710    2.2620 O.2   200  GLY200     -0.2714
     94  N          3.2570  -29.5210    2.4520 N.am  201  SER201     -0.1935
     95  CA         2.2530  -30.4870    2.8480 C.3   201  SER201      0.2055
     96  C          2.1800  -30.3650    4.3620 C.2   201  SER201      0.2642
     97  O          3.1010  -30.7820    5.0660 O.2   201  SER201     -0.2714
     98  CB         2.7020  -31.8890    2.4500 C.3   201  SER201      0.2130
     99  OG         3.1970  -31.8910    1.1200 O.3   201  SER201     -0.2179
    100  N          1.1290  -29.7180    4.8530 N.am  202  ARG202     -0.1977
    101  CA         0.9550  -29.5320    6.2820 C.3   202  ARG202      0.1597
    102  C         -0.5050  -29.6420    6.6480 C.2   202  ARG202      0.2287
    103  O         -1.3890  -29.3600    5.8320 O.2   202  ARG202     -0.2864
    104  CB         1.4650  -28.1560    6.7160 C.3   202  ARG202      0.0334
    105  CG         1.6200  -28.0100    8.2170 C.3   202  ARG202      0.0492
    106  CD         2.0030  -26.5980    8.6210 C.3   202  ARG202      0.2205
    107  NE         0.8280  -25.7510    8.7870 N.pl3 202  ARG202     -0.0865
    108  CZ         0.3720  -24.8970    7.8760 C.cat 202  ARG202      0.5346
    109  NH1        0.9960  -24.7610    6.7090 N.pl3 202  ARG202      0.1354
    110  NH2       -0.7200  -24.1840    8.1360 N.pl3 202  ARG202      0.1354
    111  N         -3.9610  -28.6790    8.4210 N.3   204  CYS204     -0.1235
    112  CA        -4.7950  -27.4880    8.5880 C.3   204  CYS204      0.1677
    113  C         -5.5750  -27.3170    9.9070 C.2   204  CYS204      0.2270
    114  O         -6.2900  -28.2190   10.3410 O.2   204  CYS204     -0.2867
    115  CB        -5.8490  -27.5180    7.4990 C.3   204  CYS204      0.0956
    116  SG        -5.3600  -26.9610    5.8490 S.3   204  CYS204     -0.0801
@<TRIPOS>BOND
     1     8     6    1
     2     5     6    1
     3     5     2    1
     4     1     2    1
     5     6     7    1
     6    28    27    2
     7     2     3    1
     8    27    26    1
     9     9     3   am
    10     9    10    1
    11     3     4    2
    12    12    11    2
    13    29    26    1
    14    29    30    1
    15    26    25    1
    16    18    17    2
    17    11    10    1
    18    13    10    1
    19    13    14    1
    20    25    17   am
    21    17    16    1
    22    14    30    1
    23    16    15    1
    24    16    19    1
    25    21    20   ar
    26    21    23   ar
    27    19    20    1
    28    67    66    2
    29    55    54    2
    30    20    22   ar
    31    23    24   ar
    32    53    54    1
    33    53    52    1
    34    54    56   am
    35    89    88    1
    36    66    65    1
    37    22    24   ar
    38    52    45   am
    39    68    65    1
    40    68    69    1
    41    88    85    1
    42    49    48    1
    43    49    50    1
    44    51    50    1
    45    48    47    1
    46    65    64    1
    47    56    57    1
    48    64    58   am
    49    45    46    2
    50    45    44    1
    51    58    59    2
    52    58    57    1
    53    57    60    1
    54    85    84    1
    55    85    86    1
    56    47    44    1
    57    44    43    1
    58    73    72    2
    59    62    61   ar
    60    84    79   am
    61    86    87    2
    62    86    90   am
    63    99    98    1
    64    90    91    1
    65    60    61    1
    66    61    63   ar
    67    40    39    2
    68    72    71    1
    69    72    77   am
    70    91    92    1
    71    70    71    1
    72    43    39   am
    73    79    78    1
    74    79    80    2
    75    74    71    1
    76    74    75    1
    77    74    76    1
    78    92    93    2
    79    92    94   am
    80    39    38    1
    81    78    77    1
    82    78    81    1
    83    98    95    1
    84    94    95    1
    85    95    96    1
    86    83    81    1
    87    81    82    1
    88    38    41    1
    89    38    37    1
    90    41    42    1
    91    37    33   am
    92    96   100   am
    93    96    97    2
    94   100   101    1
    95    35    32    1
    96    35    36    1
    97    33    32    1
    98    33    34    2
    99    42   116    1
   100    32    31    1
   101   103   102    2
   102   116   115    1
   103   101   102    1
   104   101   104    1
   105   109   108    1
   106   104   105    1
   107   115   112    1
   108   108   110    1
   109   108   107    2
   110   105   106    1
   111   111   112    1
   112   112   113    1
   113   106   107    1
   114   113   114    2
