@<TRIPOS>MOLECULE
tmp/1dfqA00.pdb
 91 86 0 0 0
SMALL
GASTEIGER

@<TRIPOS>ATOM
      1  N          5.9260    0.5790   77.3210 N.3   273  ASP273     -0.1225
      2  CA         7.3260    0.8420   77.2170 C.3   273  ASP273      0.1805
      3  C          7.8320    2.0990   76.5330 C.2   273  ASP273      0.2597
      4  O          7.1000    3.0530   76.2980 O.2   273  ASP273     -0.2718
      5  CB         7.9790   -0.3330   76.4850 C.3   273  ASP273      0.1424
      6  CG         8.8760   -0.9560   77.5410 C.2   273  ASP273      0.3668
      7  OD1        9.6220   -0.1640   78.1530 O.co2 273  ASP273     -0.2456
      8  OD2        8.7060   -2.1890   77.6610 O.co2 273  ASP273     -0.2456
      9  N          9.1200    2.1280   76.1890 N.am  274  TYR274     -0.1976
     10  CA         9.8520    3.2900   75.7200 C.3   274  TYR274      0.1639
     11  C         10.0360    3.4750   74.2310 C.2   274  TYR274      0.2290
     12  O          9.6410    2.6380   73.4320 O.2   274  TYR274     -0.2864
     13  CB        11.2320    3.3650   76.4210 C.3   274  TYR274      0.0560
     14  CG        12.1080    2.2220   75.9930 C.ar  274  TYR274     -0.0198
     15  CD1       12.0560    0.9870   76.5920 C.ar  274  TYR274     -0.0009
     16  CD2       12.9980    2.4420   74.9470 C.ar  274  TYR274     -0.0009
     17  CE1       12.8830   -0.0340   76.1350 C.ar  274  TYR274      0.0417
     18  CE2       13.8510    1.4230   74.5130 C.ar  274  TYR274      0.0417
     19  CZ        13.7640    0.1840   75.0970 C.ar  274  TYR274      0.1957
     20  OH        14.5420   -0.8070   74.6140 O.3   274  TYR274     -0.2866
     21  N          6.1720    7.8650   84.3980 N.3   338  PRO338     -0.2116
     22  CA         5.5420    7.4780   85.6410 C.3   338  PRO338      0.1372
     23  C          6.4550    7.7610   86.8220 C.2   338  PRO338      0.2244
     24  O          7.6730    7.4880   86.7830 O.2   338  PRO338     -0.2868
     25  CB         5.4770    5.9760   85.5060 C.3   338  PRO338      0.0268
     26  CG         6.3520    5.5690   84.3950 C.3   338  PRO338      0.0207
     27  CD         6.8710    6.7800   83.7000 C.3   338  PRO338      0.0892
     28  N          8.7690    7.8160   89.7110 N.3   340  ASP340     -0.1225
     29  CA         9.7720    6.8670   90.1370 C.3   340  ASP340      0.1805
     30  C         10.0290    5.8030   89.0480 C.2   340  ASP340      0.2598
     31  O         10.3420    4.6170   89.3320 O.2   340  ASP340     -0.2718
     32  CB         9.4370    6.0430   91.3960 C.3   340  ASP340      0.1424
     33  CG         9.2420    6.8130   92.6710 C.2   340  ASP340      0.3668
     34  OD1        9.9600    7.8380   92.8020 O.co2 340  ASP340     -0.2456
     35  OD2        8.3700    6.4500   93.5060 O.co2 340  ASP340     -0.2456
     36  N          9.7440    6.1400   87.7850 N.am  341  GLY341     -0.1942
     37  CA         9.9640    5.2150   86.6940 C.3   341  GLY341      0.2014
     38  C         11.4520    5.2230   86.3010 C.2   341  GLY341      0.2638
     39  O         12.0960    6.2260   86.5100 O.2   341  GLY341     -0.2714
     40  N         11.9470    4.1630   85.7010 N.am  342  ASN342     -0.1972
     41  CA        13.3060    4.0220   85.2430 C.3   342  ASN342      0.1688
     42  C         13.8400    5.2910   84.5920 C.2   342  ASN342      0.2292
     43  O         13.2160    5.8710   83.7070 O.2   342  ASN342     -0.2864
     44  CB        13.3580    2.9560   84.1530 C.3   342  ASN342      0.1181
     45  CG        14.6760    2.2670   83.9430 C.2   342  ASN342      0.2629
     46  OD1       14.7960    1.3140   83.1430 O.2   342  ASN342     -0.2716
     47  ND2       15.7360    2.6880   84.6380 N.am  342  ASN342     -0.0877
     48  N          7.4750    6.9900   78.6710 N.3   352  ARG352     -0.1245
     49  CA         6.6730    5.7880   78.4650 C.3   352  ARG352      0.1563
     50  C          5.4640    6.0750   77.5930 C.2   352  ARG352      0.2260
     51  O          4.9380    7.1910   77.6160 O.2   352  ARG352     -0.2867
     52  CB         6.3410    5.2240   79.8350 C.3   352  ARG352      0.0307
     53  CG         7.5680    4.7450   80.6040 C.3   352  ARG352      0.0489
     54  CD         8.2650    3.5790   79.9410 C.3   352  ARG352      0.2205
     55  NE         7.9600    2.2890   80.5090 N.pl3 352  ARG352     -0.0865
     56  CZ         8.2750    1.9810   81.7610 C.cat 352  ARG352      0.5346
     57  NH1        8.9200    2.9110   82.4600 N.pl3 352  ARG352      0.1354
     58  NH2        8.0150    0.8320   82.3500 N.pl3 352  ARG352      0.1354
     59  N          1.4770    4.1020   79.4950 N.3   355  TYR355     -0.1241
     60  CA         1.6670    3.5180   80.8100 C.3   355  TYR355      0.1605
     61  C          0.3870    3.5830   81.6250 C.2   355  TYR355      0.2264
     62  O         -0.3460    4.5800   81.7150 O.2   355  TYR355     -0.2867
     63  CB         2.8060    4.3070   81.4150 C.3   355  TYR355      0.0534
     64  CG         3.2900    3.7280   82.7230 C.ar  355  TYR355     -0.0201
     65  CD1        2.8310    4.2490   83.9200 C.ar  355  TYR355     -0.0009
     66  CD2        4.2160    2.6950   82.7320 C.ar  355  TYR355     -0.0009
     67  CE1        3.2760    3.7250   85.1060 C.ar  355  TYR355      0.0417
     68  CE2        4.6560    2.1870   83.9350 C.ar  355  TYR355      0.0417
     69  CZ         4.1830    2.7090   85.1160 C.ar  355  TYR355      0.1957
     70  OH         4.6420    2.1780   86.2970 O.3   355  TYR355     -0.2866
     71  N          0.0140    1.4480   84.9090 N.3   357  ALA357     -0.1245
     72  CA         0.1170    0.6260   86.1210 C.3   357  ALA357      0.1562
     73  C         -0.8230    1.2870   87.1210 C.2   357  ALA357      0.2260
     74  O         -0.7870    2.4980   87.3360 O.2   357  ALA357     -0.2867
     75  CB         1.4980    0.6280   86.7130 C.3   357  ALA357      0.0290
     76  N          0.1190    4.2980   90.1540 N.3   360  ILE360     -0.1245
     77  CA         1.3180    5.0820   89.9810 C.3   360  ILE360      0.1561
     78  C          0.9470    6.2700   89.1130 C.2   360  ILE360      0.2260
     79  O          0.4710    6.1230   88.0060 O.2   360  ILE360     -0.2867
     80  CB         2.4640    4.3560   89.2530 C.3   360  ILE360      0.0252
     81  CG1        2.8180    3.0520   89.9530 C.3   360  ILE360      0.0019
     82  CG2        3.6660    5.2970   89.1640 C.3   360  ILE360      0.0019
     83  CD1        3.8600    2.2110   89.2570 C.3   360  ILE360      0.0001
     84  N         18.4100   -0.6130   78.2500 N.3   401  ILE401     -0.1245
     85  CA        17.3960   -0.9070   79.2180 C.3   401  ILE401      0.1561
     86  C         17.2000   -2.4230   79.1590 C.2   401  ILE401      0.2260
     87  O         16.8300   -2.8720   78.0840 O.2   401  ILE401     -0.2867
     88  CB        16.0160   -0.3290   78.9300 C.3   401  ILE401      0.0252
     89  CG1       16.1030    1.1850   78.7960 C.3   401  ILE401      0.0019
     90  CG2       15.1020   -0.8270   80.0340 C.3   401  ILE401      0.0019
     91  CD1       14.8450    1.8230   78.2810 C.3   401  ILE401      0.0001
@<TRIPOS>BOND
     1    12    11    2
     2    11    10    1
     3    18    16   ar
     4    18    19   ar
     5    20    19    1
     6    16    14   ar
     7    19    17   ar
     8    10     9    1
     9    10    13    1
    10    14    13    1
    11    14    15   ar
    12    17    15   ar
    13     9     3   am
    14     4     3    2
    15     5     2    1
    16     5     6    1
    17     3     2    1
    18     2     1    1
    19     6     8   ar
    20     6     7   ar
    21    50    51    2
    22    50    49    1
    23    87    86    2
    24    84    85    1
    25    91    89    1
    26    49    48    1
    27    49    52    1
    28    89    88    1
    29    88    85    1
    30    88    90    1
    31    86    85    1
    32    59    60    1
    33    52    53    1
    34    54    55    1
    35    54    53    1
    36    55    56    2
    37    60    63    1
    38    60    61    1
    39    63    64    1
    40    61    62    2
    41    56    58    1
    42    56    57    1
    43    64    66   ar
    44    64    65   ar
    45    66    68   ar
    46    46    45    2
    47    27    26    1
    48    27    21    1
    49    43    42    2
    50    65    67   ar
    51    68    69   ar
    52    45    44    1
    53    45    47   am
    54    44    41    1
    55    26    25    1
    56    21    22    1
    57    42    41    1
    58    71    72    1
    59    67    69   ar
    60    69    70    1
    61    41    40    1
    62    25    22    1
    63    22    23    1
    64    40    38   am
    65    72    75    1
    66    72    73    1
    67    38    39    2
    68    38    37    1
    69    37    36    1
    70    24    23    2
    71    73    74    2
    72    36    30   am
    73    79    78    2
    74    30    31    2
    75    30    29    1
    76    78    77    1
    77    82    80    1
    78    80    81    1
    79    80    77    1
    80    83    81    1
    81    28    29    1
    82    77    76    1
    83    29    32    1
    84    32    33    1
    85    33    34   ar
    86    33    35   ar
