@<TRIPOS>MOLECULE
tmp/1dg7A00.pdb
 166 162 0 0 0
SMALL
GASTEIGER

@<TRIPOS>ATOM
      1  N          6.9270   18.8440    5.4470 N.3     5  ILE5       -0.1231
      2  CA         6.8370   20.2910    5.1840 C.3     5  ILE5        0.1692
      3  C          7.7060   21.0360    6.1870 C.2     5  ILE5        0.2592
      4  O          7.6480   20.7830    7.3880 O.2     5  ILE5       -0.2718
      5  CB         5.3660   20.8270    5.1760 C.3     5  ILE5        0.0266
      6  CG1        5.3390   22.3250    4.8360 C.3     5  ILE5        0.0019
      7  CG2        4.6770   20.5750    6.5030 C.3     5  ILE5        0.0020
      8  CD1        3.9420   22.8420    4.5120 C.3     5  ILE5        0.0001
      9  N          8.5860   21.8920    5.6810 N.am    6  TRP6       -0.1962
     10  CA         9.4680   22.6370    6.5690 C.3     6  TRP6        0.1771
     11  C          9.9490   23.9620    5.9590 C.2     6  TRP6        0.2619
     12  O          9.8320   24.1700    4.7440 O.2     6  TRP6       -0.2715
     13  CB        10.6880   21.7730    6.9470 C.3     6  TRP6        0.0590
     14  CG        11.7540   21.6340    5.8720 C.ar    6  TRP6        0.0006
     15  CD1       12.7560   22.5220    5.5870 C.ar    6  TRP6        0.0946
     16  CD2       11.9470   20.5220    4.9880 C.ar    6  TRP6        0.0152
     17  NE1       13.5640   22.0350    4.5840 N.ar    6  TRP6       -0.2442
     18  CE2       13.0920   20.8070    4.1980 C.ar    6  TRP6        0.0810
     19  CE3       11.2710   19.3070    4.7900 C.ar    6  TRP6        0.0012
     20  CZ2       13.5740   19.9210    3.2280 C.ar    6  TRP6        0.0191
     21  CZ3       11.7480   18.4260    3.8240 C.ar    6  TRP6        0.0001
     22  CH2       12.8900   18.7380    3.0550 C.ar    6  TRP6        0.0015
     23  N         10.4660   24.8470    6.8190 N.am    7  ALA7       -0.1977
     24  CA        11.0260   26.1290    6.3910 C.3     7  ALA7        0.1597
     25  C         12.4570   26.1130    6.9270 C.2     7  ALA7        0.2287
     26  O         12.6840   25.8270    8.1100 O.2     7  ALA7       -0.2864
     27  CB        10.2540   27.3020    6.9960 C.3     7  ALA7        0.0319
     28  N         12.4240   28.6900   16.1520 N.3    20  ILE20      -0.1245
     29  CA        12.6620   28.8590   14.7280 C.3    20  ILE20       0.1561
     30  C         13.3180   30.2490   14.7290 C.2    20  ILE20       0.2260
     31  O         12.6870   31.2460   15.0860 O.2    20  ILE20      -0.2867
     32  CB        11.3620   28.8390   13.9270 C.3    20  ILE20       0.0252
     33  CG1       10.7540   27.4360   14.0020 C.3    20  ILE20       0.0019
     34  CG2       11.6310   29.2280   12.4910 C.3    20  ILE20       0.0019
     35  CD1        9.4640   27.2640   13.2310 C.3    20  ILE20       0.0001
     36  N         13.8390   32.8900   13.1070 N.3    22  TRP22      -0.1241
     37  CA        13.3790   33.9280   12.1820 C.3    22  TRP22       0.1605
     38  C         11.8740   34.0950   12.2970 C.2    22  TRP22       0.2264
     39  O         11.1790   33.2910   12.9310 O.2    22  TRP22      -0.2867
     40  CB        13.7490   33.6380   10.7200 C.3    22  TRP22       0.0550
     41  CG        13.1160   32.3900   10.1490 C.ar   22  TRP22       0.0003
     42  CD1       11.8370   32.2470    9.6820 C.ar   22  TRP22       0.0946
     43  CD2       13.7490   31.1170    9.9790 C.ar   22  TRP22       0.0152
     44  NE1       11.6410   30.9670    9.2330 N.ar   22  TRP22      -0.2442
     45  CE2       12.7970   30.2520    9.4060 C.ar   22  TRP22       0.0810
     46  CE3       15.0340   30.6260   10.2550 C.ar   22  TRP22       0.0012
     47  CZ2       13.0870   28.9150    9.1030 C.ar   22  TRP22       0.0191
     48  CZ3       15.3180   29.2980    9.9520 C.ar   22  TRP22       0.0001
     49  CH2       14.3440   28.4600    9.3830 C.ar   22  TRP22       0.0015
     50  N          4.8880   32.4360    5.7980 N.3    27  ASP27      -0.1225
     51  CA         5.1440   30.9990    5.7530 C.3    27  ASP27       0.1805
     52  C          4.0650   30.2740    6.5590 C.2    27  ASP27       0.2597
     53  O          3.6050   29.2020    6.1650 O.2    27  ASP27      -0.2718
     54  CB         6.5440   30.6790    6.2810 C.3    27  ASP27       0.1424
     55  CG         6.8050   29.1840    6.4080 C.2    27  ASP27       0.3668
     56  OD1        6.8930   28.4790    5.3820 O.co2  27  ASP27      -0.2456
     57  OD2        6.9270   28.7320    7.5550 O.co2  27  ASP27      -0.2456
     58  N          3.6440   30.8980    7.6590 N.am   28  GLN28      -0.1979
     59  CA         2.5960   30.3790    8.5510 C.3    28  GLN28       0.1601
     60  C          1.3140   30.0610    7.7630 C.2    28  GLN28       0.2287
     61  O          0.6890   29.0140    7.9400 O.2    28  GLN28      -0.2864
     62  CB         2.2680   31.4310    9.6280 C.3    28  GLN28       0.0394
     63  CG         2.4950   30.9990   11.0680 C.3    28  GLN28       0.0908
     64  CD         3.9640   30.8910   11.4410 C.2    28  GLN28       0.2608
     65  OE1        4.5000   31.7360   12.1670 O.2    28  GLN28      -0.2717
     66  NE2        4.6220   29.8420   10.9630 N.am   28  GLN28      -0.0878
     67  N          1.1490   29.5760    4.5130 N.3    30  HIS30      -0.1226
     68  CA         1.4490   28.5200    3.5440 C.3    30  HIS30       0.1752
     69  C          1.3530   27.1490    4.2300 C.2    30  HIS30       0.2596
     70  O          0.7640   26.2090    3.6930 O.2    30  HIS30      -0.2718
     71  CB         2.8580   28.7150    2.9750 C.3    30  HIS30       0.0759
     72  CG         3.2740   27.6450    2.0110 C.ar   30  HIS30       0.0818
     73  ND1        4.3880   26.8490    2.2160 N.ar   30  HIS30      -0.2268
     74  CD2        2.7590   27.2730    0.8170 C.ar   30  HIS30       0.1154
     75  CE1        4.5430   26.0410    1.1820 C.ar   30  HIS30       0.1986
     76  NE2        3.5680   26.2770    0.3210 N.ar   30  HIS30      -0.2212
     77  N          1.9640   27.0500    5.4050 N.am   31  PHE31      -0.1976
     78  CA         1.9420   25.8230    6.1930 C.3    31  PHE31       0.1639
     79  C          0.4800   25.4470    6.4850 C.2    31  PHE31       0.2290
     80  O          0.0560   24.3140    6.2390 O.2    31  PHE31      -0.2864
     81  CB         2.7130   26.0500    7.4990 C.3    31  PHE31       0.0560
     82  CG         2.5230   24.9690    8.5240 C.ar   31  PHE31      -0.0200
     83  CD1        3.1230   23.7170    8.3660 C.ar   31  PHE31      -0.0042
     84  CD2        1.7610   25.2040    9.6580 C.ar   31  PHE31      -0.0042
     85  CE1        2.9640   22.7170    9.3270 C.ar   31  PHE31      -0.0003
     86  CE2        1.5940   24.2170   10.6260 C.ar   31  PHE31      -0.0003
     87  CZ         2.2060   22.9570   10.4580 C.ar   31  PHE31      -0.0000
     88  N          8.7920   19.3370   18.9250 N.3    46  THR46      -0.1218
     89  CA         8.0590   20.2760   18.0810 C.3    46  THR46       0.1862
     90  C          6.7220   20.5960   18.7500 C.2    46  THR46       0.2287
     91  O          6.3020   21.7500   18.7750 O.2    46  THR46      -0.2866
     92  CB         7.8910   19.7310   16.6410 C.3    46  THR46       0.1770
     93  OG1        9.1790   19.7250   16.0110 O.3    46  THR46      -0.2211
     94  CG2        6.9340   20.6130   15.7950 C.3    46  THR46       0.0375
     95  N          7.1780   23.1190   21.3840 N.3    49  SER49      -0.1202
     96  CA         7.4840   24.4280   20.8150 C.3    49  SER49       0.2020
     97  C          6.2780   25.1840   20.2700 C.2    49  SER49       0.2619
     98  O          6.3750   26.3680   19.9500 O.2    49  SER49      -0.2717
     99  CB         8.5380   24.2990   19.7140 C.3    49  SER49       0.2103
    100  OG         7.9590   23.8400   18.5060 O.3    49  SER49      -0.2182
    101  N          5.1570   24.4910   20.1050 N.am   50  LEU50      -0.1966
    102  CA         3.9470   25.1380   19.6070 C.3    50  LEU50       0.1713
    103  C          3.3930   26.1180   20.6370 C.2    50  LEU50       0.2458
    104  O          3.3320   25.8150   21.8290 O.2    50  LEU50      -0.2730
    105  CB         2.8530   24.1060   19.3120 C.3    50  LEU50       0.0310
    106  CG         2.9880   23.1970   18.1010 C.3    50  LEU50       0.0022
    107  CD1        1.8300   22.2150   18.0880 C.3    50  LEU50       0.0001
    108  CD2        3.0100   24.0280   16.8320 C.3    50  LEU50       0.0001
    109  N          3.0440   27.3380   20.1980 N.am   51  PRO51      -0.2727
    110  CA         2.4890   28.3050   21.1500 C.3    51  PRO51       0.1402
    111  C          1.1750   27.6980   21.6730 C.2    51  PRO51       0.2269
    112  O          0.4040   27.1260   20.9000 O.2    51  PRO51      -0.2865
    113  CB         2.2420   29.5250   20.2710 C.3    51  PRO51       0.0296
    114  CG         3.3290   29.4160   19.2480 C.3    51  PRO51       0.0237
    115  CD         3.3010   27.9620   18.8900 C.3    51  PRO51       0.0939
    116  N         -1.6320   28.7050   22.2960 N.3    53  LYS53      -0.1231
    117  CA        -2.8600   29.1070   21.6300 C.3    53  LYS53       0.1693
    118  C         -3.1570   28.2320   20.4090 C.2    53  LYS53       0.2591
    119  O         -4.3210   28.0650   20.0380 O.2    53  LYS53      -0.2718
    120  CB        -2.8540   30.6090   21.2990 C.3    53  LYS53       0.0285
    121  CG        -1.7790   31.0790   20.3520 C.3    53  LYS53       0.0035
    122  CD        -1.9510   32.5680   20.0560 C.3    53  LYS53       0.0206
    123  CE        -1.0850   33.0100   18.8660 C.3    53  LYS53       0.1093
    124  NZ         0.3790   32.7960   19.1010 N.3    53  LYS53      -0.1314
    125  N         -2.1140   27.6310   19.8320 N.am   54  VAL54      -0.1980
    126  CA        -2.2800   26.7360   18.6800 C.3    54  VAL54       0.1595
    127  C         -1.7780   25.3180   18.9730 C.2    54  VAL54       0.2287
    128  O         -1.2780   24.6170   18.0890 O.2    54  VAL54      -0.2864
    129  CB        -1.5810   27.2600   17.4160 C.3    54  VAL54       0.0276
    130  CG1       -2.2060   28.5790   16.9920 C.3    54  VAL54       0.0022
    131  CG2       -0.0840   27.3980   17.6540 C.3    54  VAL54       0.0022
    132  N         -2.7170   22.2290   16.9010 N.3    57  LEU57      -0.1245
    133  CA        -2.9680   23.0180   15.6980 C.3    57  LEU57       0.1561
    134  C         -4.3980   22.6950   15.2520 C.2    57  LEU57       0.2260
    135  O         -4.7190   21.5370   14.9850 O.2    57  LEU57      -0.2867
    136  CB        -1.9600   22.6640   14.6170 C.3    57  LEU57       0.0270
    137  CG        -0.5560   23.2080   14.9050 C.3    57  LEU57       0.0019
    138  CD1        0.4670   22.5980   13.9770 C.3    57  LEU57       0.0001
    139  CD2       -0.5690   24.7180   14.7360 C.3    57  LEU57       0.0001
    140  N          5.4470   17.4980   10.1230 N.3    94  ILE94      -0.1245
    141  CA         5.7250   18.9110   10.3190 C.3    94  ILE94       0.1561
    142  C          6.8900   19.2670   11.2150 C.2    94  ILE94       0.2260
    143  O          7.0430   20.4270   11.6010 O.2    94  ILE94      -0.2867
    144  CB         4.4470   19.6240   10.8260 C.3    94  ILE94       0.0252
    145  CG1        4.1410   19.2080   12.2610 C.3    94  ILE94       0.0019
    146  CG2        3.2780   19.2720    9.9210 C.3    94  ILE94       0.0019
    147  CD1        3.2420   20.1650   12.9930 C.3    94  ILE94       0.0001
    148  N         11.9450   14.4890   10.8210 N.3   100  TYR100     -0.1241
    149  CA        12.0870   14.6070    9.3650 C.3   100  TYR100      0.1605
    150  C         13.0080   13.4970    8.8540 C.2   100  TYR100      0.2264
    151  O         12.7170   12.8290    7.8550 O.2   100  TYR100     -0.2867
    152  CB        12.6980   15.9510    8.9590 C.3   100  TYR100      0.0534
    153  CG        11.7560   17.1510    9.0480 C.ar  100  TYR100     -0.0201
    154  CD1       12.2170   18.3730    9.5450 C.ar  100  TYR100     -0.0009
    155  CD2       10.4190   17.0700    8.6440 C.ar  100  TYR100     -0.0009
    156  CE1       11.3830   19.4870    9.6460 C.ar  100  TYR100      0.0417
    157  CE2        9.5690   18.1980    8.7380 C.ar  100  TYR100      0.0417
    158  CZ        10.0640   19.3980    9.2470 C.ar  100  TYR100      0.1957
    159  OH         9.2640   20.5260    9.3930 O.3   100  TYR100     -0.2866
    160  N         10.1750   25.7650    2.2560 N.3   113  THR113     -0.1218
    161  CA        10.2780   27.2160    2.1990 C.3   113  THR113      0.1862
    162  C         11.7370   27.5410    2.4960 C.2   113  THR113      0.2287
    163  O         12.2410   27.1420    3.5460 O.2   113  THR113     -0.2866
    164  CB         9.4200   27.8730    3.2840 C.3   113  THR113      0.1770
    165  OG1        8.0450   27.5650    3.0470 O.3   113  THR113     -0.2211
    166  CG2        9.6060   29.3990    3.2790 C.3   113  THR113      0.0375
@<TRIPOS>BOND
     1    76    74   ar
     2    76    75   ar
     3    74    72   ar
     4    75    73   ar
     5    72    73   ar
     6    72    71    1
     7   161   160    1
     8   161   162    1
     9   161   164    1
    10   162   163    2
    11    71    68    1
    12   165   164    1
    13    22    20   ar
    14    22    21   ar
    15    20    18   ar
    16   166   164    1
    17    68    69    1
    18    68    67    1
    19    70    69    2
    20    21    19   ar
    21    18    17   ar
    22    18    16   ar
    23    69    77   am
    24     8     6    1
    25    17    15   ar
    26    12    11    2
    27    19    16   ar
    28     6     5    1
    29    16    14   ar
    30     5     2    1
    31     5     7    1
    32     2     1    1
    33     2     3    1
    34    56    55   ar
    35    77    78    1
    36    15    14   ar
    37     9     3   am
    38     9    10    1
    39    51    50    1
    40    51    54    1
    41    51    52    1
    42    14    13    1
    43    11    10    1
    44    11    23   am
    45    53    52    2
    46     3     4    2
    47    78    79    1
    48    78    81    1
    49    80    79    2
    50    54    55    1
    51    24    23    1
    52    24    25    1
    53    24    27    1
    54    55    57   ar
    55    52    58   am
    56    10    13    1
    57    25    26    2
    58    81    82    1
    59    58    59    1
    60    60    61    2
    61    60    59    1
    62   151   150    2
    63    83    82   ar
    64    83    85   ar
    65    82    84   ar
    66    59    62    1
    67   155   157   ar
    68   155   153   ar
    69   157   158   ar
    70   150   149    1
    71   152   153    1
    72   152   149    1
    73   153   154   ar
    74    47    49   ar
    75    47    45   ar
    76    44    45   ar
    77    44    42   ar
    78   158   159    1
    79   158   156   ar
    80    85    87   ar
    81   149   148    1
    82    49    48   ar
    83    45    43   ar
    84   154   156   ar
    85    62    63    1
    86    84    86   ar
    87    42    41   ar
    88   146   144    1
    89    48    46   ar
    90    43    41   ar
    91    43    46   ar
    92   140   141    1
    93    41    40    1
    94   141   144    1
    95   141   142    1
    96    87    86   ar
    97    40    37    1
    98   144   145    1
    99    66    64   am
   100    63    64    1
   101   142   143    2
   102    64    65    2
   103    37    38    1
   104    37    36    1
   105   145   147    1
   106    38    39    2
   107    34    32    1
   108    35    33    1
   109    32    33    1
   110    32    29    1
   111   138   137    1
   112   136   137    1
   113   136   133    1
   114    29    30    1
   115    29    28    1
   116    30    31    2
   117   139   137    1
   118   135   134    2
   119   134   133    1
   120   133   132    1
   121    94    92    1
   122    93    92    1
   123    92    89    1
   124   108   106    1
   125   130   129    1
   126   129   131    1
   127   129   126    1
   128    89    90    1
   129    89    88    1
   130   107   106    1
   131   128   127    2
   132   106   105    1
   133   100    99    1
   134   126   127    1
   135   126   125    1
   136    90    91    2
   137   123   124    1
   138   123   122    1
   139   115   114    1
   140   115   109    1
   141   114   113    1
   142   105   102    1
   143   102   101    1
   144   102   103    1
   145    99    96    1
   146   125   118   am
   147    98    97    2
   148   119   118    2
   149   122   121    1
   150   101    97   am
   151   109   103   am
   152   109   110    1
   153    97    96    1
   154   113   110    1
   155   121   120    1
   156   118   117    1
   157   103   104    2
   158    96    95    1
   159   112   111    2
   160   110   111    1
   161   120   117    1
   162   117   116    1
