@<TRIPOS>MOLECULE
tmp/1dg9A00.pdb
 105 105 0 0 0
SMALL
GASTEIGER

@<TRIPOS>ATOM
      1  N         15.0810   37.9070   31.9030 N.3    12  CYS12      -0.1221
      2  CA        14.7350   38.7580   30.7730 C.3    12  CYS12       0.1808
      3  C         14.0380   40.0160   31.2880 C.2    12  CYS12       0.2601
      4  O         13.9640   40.2800   32.4960 O.2    12  CYS12      -0.2717
      5  CB        14.0160   38.1660   29.5600 C.3    12  CYS12       0.0970
      6  SG        12.3960   37.4780   30.0170 S.3    12  CYS12      -0.0800
      7  N         13.5450   40.8160   30.3610 N.am   13  LEU13      -0.1965
      8  CA        12.9320   42.0500   30.8290 C.3    13  LEU13       0.1728
      9  C         11.6120   41.8120   31.5750 C.2    13  LEU13       0.2617
     10  O         11.4480   42.3000   32.6810 O.2    13  LEU13      -0.2715
     11  CB        12.6730   42.9540   29.6150 C.3    13  LEU13       0.0311
     12  CG        12.0020   44.2540   30.0340 C.3    13  LEU13       0.0022
     13  CD1       12.9240   45.0060   31.0040 C.3    13  LEU13       0.0001
     14  CD2       11.6910   45.0200   28.7370 C.3    13  LEU13       0.0001
     15  N         10.7300   41.0430   30.9280 N.am   14  GLY14      -0.1940
     16  CA         9.4250   40.7930   31.4780 C.3    14  GLY14       0.2014
     17  C          9.2330   39.4160   32.0940 C.2    14  GLY14       0.2639
     18  O          8.2320   39.2410   32.8090 O.2    14  GLY14      -0.2714
     19  N         10.1380   38.4630   31.8400 N.am   15  ASN15      -0.1958
     20  CA         9.9090   37.1180   32.3500 C.3    15  ASN15       0.1819
     21  C          8.5810   36.5390   31.8210 C.2    15  ASN15       0.2621
     22  O          7.8660   35.8460   32.5420 O.2    15  ASN15      -0.2715
     23  CB        10.0370   37.0220   33.8910 C.3    15  ASN15       0.1195
     24  CG        10.0440   35.6060   34.4970 C.2    15  ASN15       0.2630
     25  OD1        9.5580   35.3980   35.6360 O.2    15  ASN15      -0.2716
     26  ND2       10.6780   34.6350   33.8330 N.am   15  ASN15      -0.0877
     27  N          8.1710   36.8820   30.5970 N.am   16  ILE16      -0.1963
     28  CA         6.9820   36.3490   29.9900 C.3    16  ILE16       0.1727
     29  C          7.2860   35.6390   28.6790 C.2    16  ILE16       0.2616
     30  O          6.5230   34.7640   28.2520 O.2    16  ILE16      -0.2715
     31  CB         5.7660   37.2940   29.8590 C.3    16  ILE16       0.0290
     32  CG1        6.1630   38.6020   29.1710 C.3    16  ILE16       0.0022
     33  CG2        5.1140   37.5540   31.2320 C.3    16  ILE16       0.0023
     34  CD1        5.0310   39.3640   28.4750 C.3    16  ILE16       0.0001
     35  N          8.3470   36.0370   27.9740 N.am   17  CYS17      -0.1954
     36  CA         8.6360   35.3850   26.6910 C.3    17  CYS17       0.1843
     37  C          9.9190   34.5580   26.6470 C.2    17  CYS17       0.2625
     38  O          9.8500   33.3400   26.4780 O.2    17  CYS17      -0.2714
     39  CB         8.6280   36.3500   25.4990 C.3    17  CYS17       0.0997
     40  SG         7.0650   37.2430   25.3160 S.3    17  CYS17      -0.0797
     41  N         11.0660   35.2080   26.8990 N.am   18  ARG18      -0.1977
     42  CA        12.3820   34.5760   26.8020 C.3    18  ARG18       0.1597
     43  C         12.8260   33.6520   27.9370 C.2    18  ARG18       0.2287
     44  O         13.1890   32.4830   27.7090 O.2    18  ARG18      -0.2864
     45  CB        13.4830   35.5890   26.3900 C.3    18  ARG18       0.0334
     46  CG        13.2660   36.1690   24.9770 C.3    18  ARG18       0.0492
     47  CD        14.0850   37.4390   24.7230 C.3    18  ARG18       0.2205
     48  NE        13.6890   38.5130   25.6280 N.pl3  18  ARG18      -0.0865
     49  CZ        14.3240   39.6840   25.7920 C.cat  18  ARG18       0.5346
     50  NH1       15.4320   39.9650   25.0830 N.pl3  18  ARG18       0.1354
     51  NH2       13.8460   40.5820   26.6870 N.pl3  18  ARG18       0.1354
     52  N          6.4550   44.9560   35.8840 N.3    49  TRP49      -0.1227
     53  CA         5.2310   45.1700   35.1460 C.3    49  TRP49       0.1737
     54  C          4.3680   43.9490   34.9050 C.2    49  TRP49       0.2595
     55  O          3.1610   44.0990   34.7080 O.2    49  TRP49      -0.2718
     56  CB         5.5410   45.7710   33.7680 C.3    49  TRP49       0.0564
     57  CG         4.3240   46.1360   32.9850 C.ar   49  TRP49       0.0003
     58  CD1        3.8590   45.5040   31.8730 C.ar   49  TRP49       0.0946
     59  CD2        3.4980   47.3190   33.1430 C.ar   49  TRP49       0.0152
     60  NE1        2.7500   46.1480   31.3590 N.ar   49  TRP49      -0.2442
     61  CE2        2.4850   47.2670   32.1350 C.ar   49  TRP49       0.0810
     62  CE3        3.4590   48.3660   34.0620 C.ar   49  TRP49       0.0012
     63  CZ2        1.4710   48.2450   32.0230 C.ar   49  TRP49       0.0191
     64  CZ3        2.4470   49.3100   33.9450 C.ar   49  TRP49       0.0001
     65  CH2        1.4790   49.2770   32.9290 C.ar   49  TRP49       0.0015
     66  N          4.9870   42.7700   34.7730 N.am   50  ASN50      -0.1974
     67  CA         4.2220   41.5730   34.4620 C.3    50  ASN50       0.1688
     68  C          4.1460   40.5540   35.5880 C.2    50  ASN50       0.2292
     69  O          3.7870   39.3890   35.3580 O.2    50  ASN50      -0.2864
     70  CB         4.7440   40.8820   33.1880 C.3    50  ASN50       0.1181
     71  CG         4.7410   41.8180   31.9850 C.2    50  ASN50       0.2629
     72  OD1        5.7930   42.3510   31.5900 O.2    50  ASN50      -0.2716
     73  ND2        3.5910   42.0070   31.3480 N.am   50  ASN50      -0.0877
     74  N         14.1250   40.0470   21.8500 N.3   129  ASP129     -0.1239
     75  CA        12.7760   40.0800   22.3900 C.3   129  ASP129      0.1674
     76  C         11.7820   39.7530   21.2980 C.2   129  ASP129      0.2266
     77  O         11.6290   40.5040   20.3560 O.2   129  ASP129     -0.2867
     78  CB        12.4850   41.4950   22.8680 C.3   129  ASP129      0.1410
     79  CG        11.1650   41.5970   23.5620 C.2   129  ASP129      0.3668
     80  OD1       10.9520   42.5240   24.3160 O.co2 129  ASP129     -0.2456
     81  OD2       10.3130   40.6160   23.3200 O.co2 129  ASP129     -0.2456
     82  N          8.4570   39.5890   21.5820 N.3   131  TYR131     -0.1227
     83  CA         7.1190   40.0460   21.9200 C.3   131  TYR131      0.1736
     84  C          6.3170   40.5380   20.7240 C.2   131  TYR131      0.2595
     85  O          5.1810   40.0930   20.5200 O.2   131  TYR131     -0.2718
     86  CB         7.1670   41.0570   23.0730 C.3   131  TYR131      0.0548
     87  CG         5.7860   41.4460   23.5150 C.ar  131  TYR131     -0.0200
     88  CD1        5.1030   40.7210   24.4900 C.ar  131  TYR131     -0.0009
     89  CD2        5.1180   42.4950   22.8870 C.ar  131  TYR131     -0.0009
     90  CE1        3.8120   41.0750   24.8900 C.ar  131  TYR131      0.0417
     91  CE2        3.8210   42.8570   23.2490 C.ar  131  TYR131      0.0417
     92  CZ         3.1820   42.1570   24.2690 C.ar  131  TYR131      0.1957
     93  OH         1.9060   42.5050   24.6040 O.3   131  TYR131     -0.2866
     94  N          6.9200   41.4190   19.8990 N.am  132  TYR132     -0.1976
     95  CA         6.2010   41.9490   18.7460 C.3   132  TYR132      0.1639
     96  C          6.3410   41.1000   17.5100 C.2   132  TYR132      0.2290
     97  O          5.9140   41.4800   16.4120 O.2   132  TYR132     -0.2864
     98  CB         6.3990   43.4530   18.4720 C.3   132  TYR132      0.0560
     99  CG         5.9920   44.3690   19.6120 C.ar  132  TYR132     -0.0198
    100  CD1        6.9370   44.8980   20.4900 C.ar  132  TYR132     -0.0009
    101  CD2        4.6510   44.6760   19.8470 C.ar  132  TYR132     -0.0009
    102  CE1        6.5790   45.7110   21.5680 C.ar  132  TYR132      0.0417
    103  CE2        4.2660   45.5170   20.8920 C.ar  132  TYR132      0.0417
    104  CZ         5.2360   46.0410   21.7410 C.ar  132  TYR132      0.1957
    105  OH         4.8430   46.8370   22.7700 O.3   132  TYR132     -0.2866
@<TRIPOS>BOND
     1    97    96    2
     2    96    95    1
     3    98    95    1
     4    98    99    1
     5    95    94    1
     6    99   101   ar
     7    99   100   ar
     8   101   103   ar
     9    94    84   am
    10    77    76    2
    11   100   102   ar
    12    85    84    2
    13    84    83    1
    14   103   104   ar
    15    76    75    1
    16   102   104   ar
    17    82    83    1
    18   104   105    1
    19    74    75    1
    20    83    86    1
    21    75    78    1
    22    78    79    1
    23    89    91   ar
    24    89    87   ar
    25    86    87    1
    26    91    92   ar
    27    81    79   ar
    28    87    88   ar
    29    79    80   ar
    30    92    93    1
    31    92    90   ar
    32    88    90   ar
    33    47    46    1
    34    47    48    1
    35    46    45    1
    36    50    49    1
    37    40    39    1
    38    39    36    1
    39    48    49    2
    40    49    51    1
    41    45    42    1
    42    38    37    2
    43    37    36    1
    44    37    41   am
    45    36    35    1
    46    42    41    1
    47    42    43    1
    48    44    43    2
    49    35    29   am
    50    30    29    2
    51    34    32    1
    52    29    28    1
    53    14    12    1
    54    32    31    1
    55     5     6    1
    56     5     2    1
    57    11    12    1
    58    11     8    1
    59    31    28    1
    60    31    33    1
    61    28    27    1
    62    12    13    1
    63     7     8    1
    64     7     3   am
    65    27    21   am
    66     2     3    1
    67     2     1    1
    68     8     9    1
    69    15    16    1
    70    15     9   am
    71     3     4    2
    72    73    71   am
    73    60    58   ar
    74    60    61   ar
    75    16    17    1
    76     9    10    2
    77    72    71    2
    78    21    20    1
    79    21    22    2
    80    19    17   am
    81    19    20    1
    82    58    57   ar
    83    71    70    1
    84    63    61   ar
    85    63    65   ar
    86    17    18    2
    87    61    59   ar
    88    20    23    1
    89    65    64   ar
    90    57    59   ar
    91    57    56    1
    92    59    62   ar
    93    70    67    1
    94    56    53    1
    95    26    24   am
    96    23    24    1
    97    64    62   ar
    98    67    66    1
    99    67    68    1
   100    24    25    2
   101    55    54    2
   102    66    54   am
   103    54    53    1
   104    53    52    1
   105    69    68    2
