@<TRIPOS>MOLECULE
tmp/1dgkA03.pdb
 137 129 0 0 0
SMALL
GASTEIGER

@<TRIPOS>ATOM
      1  N          9.0600   52.9580   20.2830 N.3     4  VAL4       -0.1245
      2  CA        10.1950   52.9810   19.3670 C.3     4  VAL4        0.1561
      3  C         10.2040   54.2510   18.5380 C.2     4  VAL4        0.2260
      4  O         11.2440   54.9120   18.4050 O.2     4  VAL4       -0.2867
      5  CB        10.1450   51.6960   18.5260 C.3     4  VAL4        0.0252
      6  CG1       11.0940   51.7220   17.3450 C.3     4  VAL4        0.0019
      7  CG2       10.4470   50.5410   19.4740 C.3     4  VAL4        0.0019
      8  N         13.1230   56.7950   18.6410 N.3     8  ASP8       -0.1239
      9  CA        13.7540   57.2880   17.4150 C.3     8  ASP8        0.1674
     10  C         13.8950   58.8070   17.4340 C.2     8  ASP8        0.2266
     11  O         14.8720   59.4100   16.9990 O.2     8  ASP8       -0.2867
     12  CB        12.9910   56.8180   16.1820 C.3     8  ASP8        0.1410
     13  CG        13.2010   55.3390   15.8900 C.2     8  ASP8        0.3668
     14  OD1       14.0060   54.6210   16.5410 O.co2   8  ASP8       -0.2456
     15  OD2       12.5020   54.9250   14.9340 O.co2   8  ASP8       -0.2456
     16  N         21.5970   60.1560   16.6600 N.3    14  MET14      -0.1230
     17  CA        22.4040   58.9710   16.7800 C.3    14  MET14       0.1702
     18  C         22.0540   58.0070   15.6370 C.2    14  MET14       0.2595
     19  O         22.7370   57.0450   15.2740 O.2    14  MET14      -0.2718
     20  CB        22.1380   58.2730   18.1020 C.3    14  MET14       0.0401
     21  CG        22.7090   59.0280   19.2770 C.3    14  MET14       0.0596
     22  SD        23.2110   57.8210   20.5040 S.3    14  MET14      -0.1393
     23  CE        24.3650   58.8050   21.4650 C.3    14  MET14       0.0692
     24  N         20.9750   58.3270   14.9390 N.am   15  ARG15      -0.1920
     25  CA        20.4780   57.4700   13.8660 C.3    15  ARG15       0.1945
     26  C         20.8160   57.9850   12.4880 C.2    15  ARG15       0.2658
     27  O         20.0060   58.4840   11.6870 O.2    15  ARG15      -0.2711
     28  CB        19.0180   57.3010   14.2700 C.2    15  ARG15       0.0033
     29  CG        18.0170   56.8280   13.2700 C.2    15  ARG15       0.0179
     30  CD        16.6850   56.3670   13.8100 C.3    15  ARG15       0.2464
     31  NE        16.1020   55.1730   13.1970 N.pl3  15  ARG15      -0.0815
     32  CZ        15.9040   54.9660   11.8950 C.cat  15  ARG15       0.5349
     33  NH1       16.2030   55.8330   10.9100 N.pl3  15  ARG15       0.1354
     34  NH2       15.3570   53.8010   11.5360 N.pl3  15  ARG15       0.1354
     35  N         22.0810   57.8290   12.0510 N.am   16  LEU16      -0.1974
     36  CA        22.5290   58.3990   10.8010 C.3    16  LEU16       0.1596
     37  C         21.9680   57.8890    9.5150 C.2    16  LEU16       0.2287
     38  O         21.7890   56.7110    9.2720 O.2    16  LEU16      -0.2864
     39  CB        24.0400   58.2420   10.6640 C.3    16  LEU16       0.0297
     40  CG        24.8230   58.6010   11.9200 C.3    16  LEU16       0.0022
     41  CD1       26.2780   58.7690   11.5140 C.3    16  LEU16       0.0001
     42  CD2       24.3170   59.8330   12.6470 C.3    16  LEU16       0.0001
     43  N         15.6310   49.0220   22.2490 N.3   358  HIS358     -0.1241
     44  CA        15.7490   49.9240   21.1010 C.3   358  HIS358      0.1621
     45  C         16.9240   50.8830   21.2380 C.2   358  HIS358      0.2264
     46  O         17.5140   51.3100   20.2390 O.2   358  HIS358     -0.2867
     47  CB        14.4380   50.6970   20.8720 C.3   358  HIS358      0.0745
     48  CG        14.3810   51.2280   19.4720 C.ar  358  HIS358      0.0817
     49  ND1       14.4340   50.4400   18.3480 N.ar  358  HIS358     -0.2268
     50  CD2       14.2560   52.5140   19.0370 C.ar  358  HIS358      0.1154
     51  CE1       14.3540   51.2150   17.2780 C.ar  358  HIS358      0.1986
     52  NE2       14.2330   52.4730   17.6650 N.ar  358  HIS358     -0.2212
     53  N         19.8850   48.9310   20.1480 N.3   361  THR361     -0.1203
     54  CA        19.8630   48.8630   18.7040 C.3   361  THR361      0.1994
     55  C         20.4210   50.1170   18.0470 C.2   361  THR361      0.2617
     56  O         21.2460   49.9570   17.1460 O.2   361  THR361     -0.2717
     57  CB        18.4200   48.7280   18.1780 C.3   361  THR361      0.1784
     58  OG1       17.8300   47.4860   18.6340 O.3   361  THR361     -0.2211
     59  CG2       18.3270   48.7540   16.6710 C.3   361  THR361      0.0376
     60  N         19.9720   51.3010   18.5010 N.am  362  ILE362     -0.1979
     61  CA        20.3880   52.5380   17.8440 C.3   362  ILE362      0.1595
     62  C         21.8730   52.7390   18.0560 C.2   362  ILE362      0.2287
     63  O         22.5820   53.0230   17.0850 O.2   362  ILE362     -0.2864
     64  CB        19.5320   53.7250   18.2930 C.3   362  ILE362      0.0276
     65  CG1       18.1350   53.6020   17.6910 C.3   362  ILE362      0.0022
     66  CG2       20.1450   55.0600   17.8720 C.3   362  ILE362      0.0022
     67  CD1       17.0880   54.5340   18.2940 C.3   362  ILE362      0.0001
     68  N         23.8150   50.0730   16.0610 N.3   365  PHE365     -0.1227
     69  CA        23.7370   50.2580   14.6200 C.3   365  PHE365      0.1736
     70  C         24.5100   51.5120   14.1920 C.2   365  PHE365      0.2595
     71  O         25.0830   51.4450   13.0870 O.2   365  PHE365     -0.2718
     72  CB        22.2970   50.3220   14.1730 C.3   365  PHE365      0.0547
     73  CG        21.9020   49.8410   12.8150 C.ar  365  PHE365     -0.0202
     74  CD1       20.6720   49.2060   12.6570 C.ar  365  PHE365     -0.0042
     75  CD2       22.7040   50.0420   11.7070 C.ar  365  PHE365     -0.0042
     76  CE1       20.2720   48.7820   11.4020 C.ar  365  PHE365     -0.0003
     77  CE2       22.3190   49.5840   10.4520 C.ar  365  PHE365     -0.0003
     78  CZ        21.0990   48.9600   10.3010 C.ar  365  PHE365     -0.0000
     79  N         24.5540   52.5770   15.0290 N.am  366  ARG366     -0.1980
     80  CA        25.2700   53.7700   14.6160 C.3   366  ARG366      0.1597
     81  C         26.7430   53.3870   14.4510 C.2   366  ARG366      0.2287
     82  O         27.3950   53.8750   13.5140 O.2   366  ARG366     -0.2864
     83  CB        25.1620   54.9690   15.5700 C.3   366  ARG366      0.0334
     84  CG        25.9620   56.2160   15.1720 C.3   366  ARG366      0.0492
     85  CD        25.8170   57.2950   16.2290 C.3   366  ARG366      0.2205
     86  NE        26.5610   56.9870   17.4350 N.pl3 366  ARG366     -0.0865
     87  CZ        26.9610   57.8680   18.3470 C.cat 366  ARG366      0.5346
     88  NH1       26.6990   59.1570   18.1780 N.pl3 366  ARG366      0.1354
     89  NH2       27.6380   57.5580   19.4440 N.pl3 366  ARG366      0.1354
     90  N         27.3070   51.5640   11.2430 N.3   369  ASN369     -0.1240
     91  CA        27.1840   52.5290   10.1390 C.3   369  ASN369      0.1653
     92  C         28.4260   53.3930   10.0020 C.2   369  ASN369      0.2266
     93  O         28.9640   53.6690    8.9340 O.2   369  ASN369     -0.2867
     94  CB        25.9820   53.4510   10.3100 C.3   369  ASN369      0.1155
     95  CG        24.6340   52.8220    9.9990 C.2   369  ASN369      0.2627
     96  OD1       23.6240   53.2340   10.6050 O.2   369  ASN369     -0.2716
     97  ND2       24.5520   51.8450    9.0850 N.am  369  ASN369     -0.0877
     98  N         23.7890   41.0340   15.9900 N.3   407  GLN407     -0.1245
     99  CA        23.3450   41.7060   14.7940 C.3   407  GLN407      0.1566
    100  C         24.3820   42.5670   14.1020 C.2   407  GLN407      0.2260
    101  O         24.2260   42.9010   12.9050 O.2   407  GLN407     -0.2867
    102  CB        22.1600   42.6420   15.0400 C.3   407  GLN407      0.0367
    103  CG        20.9940   42.1660   15.8480 C.3   407  GLN407      0.0905
    104  CD        20.4000   40.8340   15.4470 C.2   407  GLN407      0.2608
    105  OE1       20.2860   40.5410   14.2520 O.2   407  GLN407     -0.2717
    106  NE2       20.0880   40.0360   16.4700 N.am  407  GLN407     -0.0878
    107  N         26.2650   41.6490   10.5830 N.3   410  ARG410     -0.1231
    108  CA        25.2810   41.6610    9.4900 C.3   410  ARG410      0.1694
    109  C         24.9740   43.0980    9.0440 C.2   410  ARG410      0.2591
    110  O         25.0630   43.3440    7.8390 O.2   410  ARG410     -0.2718
    111  CB        24.0230   40.9110    9.9190 C.3   410  ARG410      0.0321
    112  CG        22.8990   40.9150    8.8860 C.3   410  ARG410      0.0489
    113  CD        21.7170   40.1240    9.4260 C.3   410  ARG410      0.2205
    114  NE        21.1630   40.5660   10.7060 N.pl3 410  ARG410     -0.0865
    115  CZ        20.4190   41.6580   10.8880 C.cat 410  ARG410      0.5346
    116  NH1       20.1130   42.4470    9.8710 N.pl3 410  ARG410      0.1354
    117  NH2       19.9860   41.9110   12.1170 N.pl3 410  ARG410      0.1354
    118  N         24.6510   43.9700   10.0170 N.am  411  ARG411     -0.1980
    119  CA        24.2770   45.3310    9.6600 C.3   411  ARG411      0.1597
    120  C         25.4280   46.0970    9.0350 C.2   411  ARG411      0.2287
    121  O         25.2020   46.7520    8.0190 O.2   411  ARG411     -0.2864
    122  CB        23.7320   46.0370   10.8740 C.3   411  ARG411      0.0334
    123  CG        22.3330   45.6100   11.2930 C.3   411  ARG411      0.0492
    124  CD        22.0890   45.9600   12.7520 C.3   411  ARG411      0.2205
    125  NE        20.7700   45.5620   13.2090 N.pl3 411  ARG411     -0.0865
    126  CZ        20.3790   45.5490   14.4930 C.cat 411  ARG411      0.5346
    127  NH1       21.1700   45.9000   15.5210 N.pl3 411  ARG411      0.1354
    128  NH2       19.1220   45.1710   14.7560 N.pl3 411  ARG411      0.1354
    129  N         26.0040   45.0120    5.4030 N.3   414  LYS414     -0.1245
    130  CA        24.9560   45.5070    4.5500 C.3   414  LYS414      0.1561
    131  C         25.1970   46.9510    4.1490 C.2   414  LYS414      0.2260
    132  O         25.2020   47.3410    2.9870 O.2   414  LYS414     -0.2867
    133  CB        23.5950   45.4680    5.2650 C.3   414  LYS414      0.0271
    134  CG        22.4570   45.6760    4.2620 C.3   414  LYS414      0.0035
    135  CD        21.0960   45.5800    4.9230 C.3   414  LYS414      0.0206
    136  CE        19.9500   45.3430    3.9470 C.3   414  LYS414      0.1093
    137  NZ        18.5990   45.4530    4.5790 N.3   414  LYS414     -0.1314
@<TRIPOS>BOND
     1   132   131    2
     2   136   137    1
     3   136   135    1
     4   131   130    1
     5   134   135    1
     6   134   133    1
     7   130   133    1
     8   130   129    1
     9   110   109    2
    10   121   120    2
    11   112   113    1
    12   112   111    1
    13    93    92    2
    14   120   119    1
    15   109   108    1
    16   109   118   am
    17    97    95   am
    18    38    37    2
    19   113   114    1
    20   108   111    1
    21   108   107    1
    22    37    36    1
    23   119   118    1
    24   119   122    1
    25   116   115    1
    26    95    94    1
    27    95    96    2
    28    92    91    1
    29    91    94    1
    30    91    90    1
    31    78    77   ar
    32    78    76   ar
    33    77    75   ar
    34    39    36    1
    35    39    40    1
    36   114   115    2
    37    36    35    1
    38   122   123    1
    39   115   117    1
    40    33    32    1
    41   123   124    1
    42    76    74   ar
    43    41    40    1
    44    34    32    1
    45    27    26    2
    46    75    73   ar
    47    32    31    2
    48    40    42    1
    49    35    26   am
    50    26    25    1
    51    74    73   ar
    52   124   125    1
    53    73    72    1
    54   101   100    2
    55    71    70    2
    56    31    30    1
    57   125   126    2
    58    29    30    1
    59    29    28    2
    60    82    81    2
    61    25    28    1
    62    25    24    1
    63   100    99    1
    64    72    69    1
    65    70    69    1
    66    70    79   am
    67   105   104    2
    68    81    80    1
    69   126   128    1
    70   126   127    1
    71    80    79    1
    72    80    83    1
    73    69    68    1
    74    99   102    1
    75    99    98    1
    76    15    13   ar
    77    24    18   am
    78   102   103    1
    79    84    83    1
    80    84    85    1
    81    19    18    2
    82   104   103    1
    83   104   106   am
    84    18    17    1
    85    13    12    1
    86    13    14   ar
    87    12     9    1
    88    85    86    1
    89    16    17    1
    90    59    57    1
    91    17    20    1
    92    11    10    2
    93    63    62    2
    94    56    55    2
    95    51    52   ar
    96    51    49   ar
    97     6     5    1
    98     9    10    1
    99     9     8    1
   100    86    87    2
   101    52    50   ar
   102    65    64    1
   103    65    67    1
   104    61    62    1
   105    61    64    1
   106    61    60    1
   107    66    64    1
   108    55    60   am
   109    55    54    1
   110    20    21    1
   111    57    58    1
   112    57    54    1
   113    88    87    1
   114    87    89    1
   115    49    48   ar
   116     4     3    2
   117     5     2    1
   118     5     7    1
   119     3     2    1
   120    54    53    1
   121    50    48   ar
   122    21    22    1
   123     2     1    1
   124    48    47    1
   125    46    45    2
   126    22    23    1
   127    47    44    1
   128    44    45    1
   129    44    43    1
