@<TRIPOS>MOLECULE
tmp/1dgkA02.pdb
 161 152 0 0 0
SMALL
GASTEIGER

@<TRIPOS>ATOM
      1  N        104.3630   61.9830  -20.7480 N.3   517  ASP517     -0.1239
      2  CA       103.5930   61.6900  -19.5330 C.3   517  ASP517      0.1674
      3  C        103.1750   60.2340  -19.7170 C.2   517  ASP517      0.2266
      4  O        102.2370   59.8420  -20.4350 O.2   517  ASP517     -0.2867
      5  CB       102.3760   62.5870  -19.3850 C.3   517  ASP517      0.1410
      6  CG       101.6530   62.4860  -18.0570 C.2   517  ASP517      0.3668
      7  OD1      100.5750   63.1260  -17.9050 O.co2 517  ASP517     -0.2456
      8  OD2      102.1600   61.7660  -17.1580 O.co2 517  ASP517     -0.2456
      9  N        100.0300   56.7560  -16.4240 N.3   520  GLY520     -0.1210
     10  CA        98.6800   56.9360  -15.9110 C.3   520  GLY520      0.1956
     11  C         97.6880   56.3840  -16.9270 C.2   520  GLY520      0.2612
     12  O         98.0250   55.4700  -17.6910 O.2   520  GLY520     -0.2717
     13  N         96.4670   56.9510  -16.9380 N.am  521  ALA521     -0.1965
     14  CA        95.4780   56.4560  -17.8990 C.3   521  ALA521      0.1728
     15  C         95.8890   56.8210  -19.3240 C.2   521  ALA521      0.2616
     16  O         95.8240   55.9040  -20.1620 O.2   521  ALA521     -0.2715
     17  CB        94.0370   56.8330  -17.6660 C.3   521  ALA521      0.0334
     18  N         96.2890   58.0610  -19.5650 N.am  522  ASN522     -0.1972
     19  CA        96.6780   58.5050  -20.8860 C.3   522  ASN522      0.1688
     20  C         98.1620   58.7670  -21.1130 C.2   522  ASN522      0.2292
     21  O         98.7460   59.5730  -20.3640 O.2   522  ASN522     -0.2864
     22  CB        95.9660   59.8750  -21.0510 C.3   522  ASN522      0.1181
     23  CG        94.4660   59.6060  -21.0650 C.2   522  ASN522      0.2629
     24  OD1       94.2030   58.7050  -21.8670 O.2   522  ASN522     -0.2716
     25  ND2       93.6310   60.2740  -20.2910 N.am  522  ASN522     -0.0877
     26  N        100.8440   60.8480  -22.8970 N.3   524  ARG524     -0.1245
     27  CA       100.7850   62.1110  -23.6170 C.3   524  ARG524      0.1563
     28  C        102.1950   62.6160  -23.9600 C.2   524  ARG524      0.2260
     29  O        103.2220   62.3240  -23.3220 O.2   524  ARG524     -0.2867
     30  CB       100.1130   63.2210  -22.8430 C.3   524  ARG524      0.0307
     31  CG        98.6280   63.3610  -22.7230 C.3   524  ARG524      0.0489
     32  CD        98.2910   64.2420  -21.5260 C.3   524  ARG524      0.2205
     33  NE        97.0090   63.8850  -20.9620 N.pl3 524  ARG524     -0.0865
     34  CZ        95.8250   64.4410  -21.1840 C.cat 524  ARG524      0.5346
     35  NH1       95.5920   65.4930  -21.9760 N.pl3 524  ARG524      0.1354
     36  NH2       94.8200   63.8550  -20.5160 N.pl3 524  ARG524      0.1354
     37  N         99.2390   61.2610   -5.8350 N.3   662  ILE662     -0.1245
     38  CA        98.5370   60.7420   -6.9700 C.3   662  ILE662      0.1561
     39  C         97.5430   59.6860   -6.4750 C.2   662  ILE662      0.2260
     40  O         97.9740   58.8030   -5.7150 O.2   662  ILE662     -0.2867
     41  CB        99.4410   60.0900   -8.0320 C.3   662  ILE662      0.0252
     42  CG1      100.4460   61.0590   -8.6380 C.3   662  ILE662      0.0019
     43  CG2       98.5930   59.5110   -9.1580 C.3   662  ILE662      0.0019
     44  CD1       99.8930   62.4080   -9.0290 C.3   662  ILE662      0.0001
     45  N         95.0980   57.8200   -8.8030 N.3   664  GLY664     -0.1210
     46  CA        94.5270   57.5680  -10.1230 C.3   664  GLY664      0.1956
     47  C         94.6310   56.0590  -10.3480 C.2   664  GLY664      0.2612
     48  O         94.2200   55.2230   -9.5050 O.2   664  GLY664     -0.2717
     49  N         95.2600   55.6520  -11.4560 N.am  665  THR665     -0.1952
     50  CA        95.4200   54.2200  -11.6910 C.3   665  THR665      0.1897
     51  C         96.1130   53.5680  -10.5080 C.2   665  THR665      0.2313
     52  O         95.6650   52.5510  -10.0060 O.2   665  THR665     -0.2863
     53  CB        96.2320   54.0180  -12.9780 C.3   665  THR665      0.1794
     54  OG1       95.5610   54.7780  -14.0090 O.3   665  THR665     -0.2208
     55  CG2       96.3150   52.5450  -13.2790 C.3   665  THR665      0.0378
     56  N         92.4770   53.4600   -8.3070 N.3   732  GLY732     -0.1210
     57  CA        91.5480   53.3500   -9.4040 C.3   732  GLY732      0.1956
     58  C         91.5370   52.0120  -10.1260 C.2   732  GLY732      0.2611
     59  O         90.4950   51.5120  -10.5620 O.2   732  GLY732     -0.2717
     60  N         92.7330   51.4520  -10.2620 N.am  733  MET733     -0.1979
     61  CA        92.8400   50.1740  -10.9550 C.3   733  MET733      0.1605
     62  C         92.2450   49.0530  -10.1430 C.2   733  MET733      0.2287
     63  O         91.9310   48.0460  -10.7570 O.2   733  MET733     -0.2864
     64  CB        94.3010   49.8510  -11.2070 C.3   733  MET733      0.0413
     65  CG        94.5620   48.5470  -11.9080 C.3   733  MET733      0.0598
     66  SD        96.0830   48.5850  -12.8670 S.3   733  MET733     -0.1393
     67  CE        96.4970   46.8250  -12.7900 C.3   733  MET733      0.0692
     68  N         84.2900   48.8200  -13.4440 N.3   768  GLU768     -0.1231
     69  CA        85.1900   49.9410  -13.6210 C.3   768  GLU768      0.1699
     70  C         84.9330   50.8940  -12.4520 C.2   768  GLU768      0.2593
     71  O         83.8230   51.0740  -11.9410 O.2   768  GLU768     -0.2718
     72  CB        85.0490   50.7490  -14.8920 C.3   768  GLU768      0.0402
     73  CG        85.1000   49.8570  -16.1290 C.3   768  GLU768      0.1161
     74  CD        84.9000   50.7210  -17.3600 C.2   768  GLU768      0.3649
     75  OE1       84.6650   50.1860  -18.4620 O.co2 768  GLU768     -0.2457
     76  OE2       84.9860   51.9610  -17.1780 O.co2 768  GLU768     -0.2457
     77  N         86.0410   51.6070  -12.2110 N.am  769  THR769     -0.1939
     78  CA        85.7890   52.5340  -11.0910 C.3   769  THR769      0.2028
     79  C         85.2350   53.7710  -11.7190 C.2   769  THR769      0.2645
     80  O         84.9310   54.6850  -10.9780 O.2   769  THR769     -0.2714
     81  CB        87.0560   52.6010  -10.2700 C.3   769  THR769      0.1808
     82  OG1       87.5470   51.2720   -9.9860 O.3   769  THR769     -0.2208
     83  CG2       86.8190   53.3790   -8.9850 C.3   769  THR769      0.0379
     84  N         85.0590   53.8400  -13.0330 N.am  770  LYS770     -0.1931
     85  CA        84.3740   54.9180  -13.7260 C.3   770  LYS770      0.1813
     86  C         82.9360   54.9210  -13.2100 C.2   770  LYS770      0.2332
     87  O         82.3720   55.9080  -12.7700 O.2   770  LYS770     -0.2860
     88  CB        84.4360   54.7310  -15.2380 C.2   770  LYS770     -0.0016
     89  CG        83.2720   55.2480  -16.0410 C.2   770  LYS770     -0.0270
     90  CD        83.3570   55.0710  -17.5480 C.3   770  LYS770      0.0462
     91  CE        82.1510   55.7530  -18.1930 C.3   770  LYS770      0.1140
     92  NZ        82.0770   55.6430  -19.6810 N.3   770  LYS770     -0.1310
     93  N         82.0330   55.9120   -9.2100 N.3   773  SER773     -0.1202
     94  CA        81.7660   57.2900   -8.8380 C.3   773  SER773      0.2020
     95  C         80.3000   57.6100   -9.1210 C.2   773  SER773      0.2618
     96  O         79.5470   58.2190   -8.3810 O.2   773  SER773     -0.2717
     97  CB        82.6700   58.2730   -9.5740 C.3   773  SER773      0.2103
     98  OG        83.8780   58.4240   -8.8580 O.3   773  SER773     -0.2182
     99  N         79.8510   57.1140  -10.2640 N.am  774  GLN774     -0.1979
    100  CA        78.5030   57.1900  -10.7700 C.3   774  GLN774      0.1601
    101  C         77.4790   56.5570   -9.8420 C.2   774  GLN774      0.2287
    102  O         76.4470   57.1440   -9.5770 O.2   774  GLN774     -0.2864
    103  CB        78.4440   56.4000  -12.0710 C.3   774  GLN774      0.0394
    104  CG        78.3260   57.2240  -13.3280 C.3   774  GLN774      0.0908
    105  CD        78.9380   56.4810  -14.4900 C.2   774  GLN774      0.2608
    106  OE1       78.8090   55.2600  -14.5370 O.2   774  GLN774     -0.2717
    107  NE2       79.5990   57.1630  -15.4150 N.am  774  GLN774     -0.0878
    108  N         96.5640   64.7770   -7.9390 N.3   846  ASP846     -0.1225
    109  CA        95.9950   64.5130   -9.2490 C.3   846  ASP846      0.1805
    110  C         95.5670   63.0660   -9.2920 C.2   846  ASP846      0.2598
    111  O         95.9050   62.4160   -8.3190 O.2   846  ASP846     -0.2718
    112  CB        96.9650   64.7740  -10.3760 C.3   846  ASP846      0.1424
    113  CG        96.3220   65.0750  -11.7160 C.2   846  ASP846      0.3668
    114  OD1       95.0900   64.9680  -11.8650 O.co2 846  ASP846     -0.2456
    115  OD2       97.0580   65.4590  -12.6510 O.co2 846  ASP846     -0.2456
    116  N         94.9630   62.6550  -10.3910 N.am  847  GLY847     -0.1942
    117  CA        94.4550   61.3180  -10.5070 C.3   847  GLY847      0.2014
    118  C         92.9480   61.3080  -10.7700 C.2   847  GLY847      0.2640
    119  O         92.2070   62.1420  -10.2420 O.2   847  GLY847     -0.2714
    120  N         92.5060   60.3220  -11.5610 N.am  848  THR848     -0.1936
    121  CA        91.1040   60.2670  -11.9450 C.3   848  THR848      0.2028
    122  C         90.1300   59.8730  -10.8530 C.2   848  THR848      0.2642
    123  O         89.0780   60.5420  -10.7690 O.2   848  THR848     -0.2714
    124  CB        90.9540   59.3910  -13.1790 C.3   848  THR848      0.1808
    125  OG1       91.8950   59.8950  -14.1450 O.3   848  THR848     -0.2208
    126  CG2       89.5830   59.6120  -13.7680 C.3   848  THR848      0.0379
    127  N         90.4540   58.9030  -10.0240 N.am  849  LEU849     -0.1977
    128  CA        89.5850   58.5630   -8.9090 C.3   849  LEU849      0.1596
    129  C         89.4900   59.7700   -7.9670 C.2   849  LEU849      0.2287
    130  O         88.4180   60.1220   -7.4470 O.2   849  LEU849     -0.2864
    131  CB        90.1310   57.3240   -8.2060 C.3   849  LEU849      0.0297
    132  CG        89.5330   56.9630   -6.8690 C.3   849  LEU849      0.0022
    133  CD1       88.0930   56.5250   -6.9730 C.3   849  LEU849      0.0001
    134  CD2       90.3940   55.8740   -6.2720 C.3   849  LEU849      0.0001
    135  N         89.8810   62.9540   -8.7220 N.3   851  LYS851     -0.1231
    136  CA        89.0960   63.9770   -9.3660 C.3   851  LYS851      0.1693
    137  C         87.6080   63.6210   -9.4730 C.2   851  LYS851      0.2592
    138  O         86.8250   64.5440   -9.2280 O.2   851  LYS851     -0.2718
    139  CB        89.4880   64.3180  -10.7970 C.3   851  LYS851      0.0285
    140  CG        90.5080   65.3930  -11.0290 C.3   851  LYS851      0.0035
    141  CD        90.7680   65.5540  -12.5240 C.3   851  LYS851      0.0206
    142  CE        92.2360   65.8750  -12.7780 C.3   851  LYS851      0.1093
    143  NZ        93.0220   64.8810  -13.5300 N.3   851  LYS851     -0.1314
    144  N         87.2710   62.4130   -9.9250 N.am  852  LEU852     -0.1966
    145  CA        85.8630   62.1350  -10.1360 C.3   852  LEU852      0.1728
    146  C         85.0690   61.5990   -8.9540 C.2   852  LEU852      0.2616
    147  O         83.8350   61.6790   -9.0460 O.2   852  LEU852     -0.2715
    148  CB        85.5890   61.1440  -11.2810 C.3   852  LEU852      0.0311
    149  CG        86.5090   61.1000  -12.4930 C.3   852  LEU852      0.0022
    150  CD1       86.0960   60.0160  -13.4820 C.3   852  LEU852      0.0001
    151  CD2       86.4530   62.4310  -13.2190 C.3   852  LEU852      0.0001
    152  N         85.6430   60.9260   -7.9730 N.am  853  HIS853     -0.1973
    153  CA        84.8100   60.3450   -6.9170 C.3   853  HIS853      0.1656
    154  C         84.1280   61.4140   -6.0890 C.2   853  HIS853      0.2291
    155  O         84.7520   62.3440   -5.6250 O.2   853  HIS853     -0.2864
    156  CB        85.6580   59.4010   -6.0730 C.3   853  HIS853      0.0771
    157  CG        84.7520   58.4430   -5.3610 C.ar  853  HIS853      0.0820
    158  ND1       84.2690   58.7180   -4.1040 N.ar  853  HIS853     -0.2267
    159  CD2       84.2670   57.2430   -5.7510 C.ar  853  HIS853      0.1154
    160  CE1       83.5170   57.6990   -3.7390 C.ar  853  HIS853      0.1986
    161  NE2       83.4940   56.8040   -4.7120 N.ar  853  HIS853     -0.2212
@<TRIPOS>BOND
     1    28    27    1
     2    28    29    2
     3    27    26    1
     4    27    30    1
     5    30    31    1
     6    31    32    1
     7    35    34    1
     8    24    23    2
     9    32    33    1
    10    34    33    2
    11    34    36    1
    12    20    19    1
    13    20    21    2
    14    23    22    1
    15    23    25   am
    16    22    19    1
    17    19    18    1
    18     1     2    1
    19     4     3    2
    20    16    15    2
    21     3     2    1
    22    92    91    1
    23    18    15   am
    24     2     5    1
    25     5     6    1
    26    15    14    1
    27    75    74   ar
    28    91    90    1
    29     6     7   ar
    30     6     8   ar
    31    14    17    1
    32    14    13    1
    33    12    11    2
    34    90    89    1
    35    74    76   ar
    36    74    73    1
    37    13    11   am
    38    11    10    1
    39     9    10    1
    40    73    72    1
    41    89    88    2
    42   107   105   am
    43    88    85    1
    44    72    69    1
    45   106   105    2
    46   105   104    1
    47   125   124    1
    48    54    53    1
    49   126   124    1
    50    85    86    1
    51    85    84    1
    52    69    68    1
    53    69    70    1
    54   143   142    1
    55   150   149    1
    56   104   103    1
    57    55    53    1
    58   151   149    1
    59    86    87    2
    60   124   121    1
    61    84    79   am
    62    53    50    1
    63    66    67    1
    64    66    65    1
    65   142   141    1
    66   115   113   ar
    67   141   140    1
    68   149   148    1
    69    70    77   am
    70    70    71    2
    71    77    78    1
    72   103   100    1
    73   121   120    1
    74   121   122    1
    75    65    64    1
    76   114   113   ar
    77    79    78    1
    78    79    80    2
    79   113   112    1
    80    50    49    1
    81    50    51    1
    82   120   118   am
    83    49    47   am
    84   148   145    1
    85    64    61    1
    86    78    81    1
    87   140   139    1
    88    61    60    1
    89    61    62    1
    90   122   123    2
    91   122   127   am
    92   139   136    1
    93   118   117    1
    94   118   119    2
    95   100    99    1
    96   100   101    1
    97    63    62    2
    98    59    58    2
    99    51    52    2
   100   117   116    1
   101   116   110   am
   102   112   109    1
   103    47    46    1
   104    47    48    2
   105    81    82    1
   106    81    83    1
   107    99    95   am
   108    60    58   am
   109   145   144    1
   110   145   146    1
   111    58    57    1
   112    46    45    1
   113   127   128    1
   114   144   137   am
   115   101   102    2
   116    97    98    1
   117    97    94    1
   118   137   136    1
   119   137   138    2
   120    57    56    1
   121   136   135    1
   122   110   109    1
   123   110   111    2
   124   109   108    1
   125    93    94    1
   126    43    41    1
   127    95    94    1
   128    95    96    2
   129   147   146    2
   130    44    42    1
   131   146   152   am
   132   128   131    1
   133   128   129    1
   134    42    41    1
   135   131   132    1
   136    41    38    1
   137   152   153    1
   138   129   130    2
   139   133   132    1
   140    38    39    1
   141    38    37    1
   142   153   154    1
   143   153   156    1
   144   132   134    1
   145    39    40    2
   146   154   155    2
   147   156   157    1
   148   159   157   ar
   149   159   161   ar
   150   157   158   ar
   151   161   160   ar
   152   158   160   ar
