@<TRIPOS>MOLECULE
tmp/1dgpA01.pdb
 124 118 0 0 0
SMALL
GASTEIGER

@<TRIPOS>ATOM
      1  N         40.7050   26.6340   25.5830 N.3    49  VAL49      -0.1245
      2  CA        39.7740   27.7500   25.5060 C.3    49  VAL49       0.1561
      3  C         39.5260   28.0860   24.0420 C.2    49  VAL49       0.2260
      4  O         38.3860   28.1990   23.6060 O.2    49  VAL49      -0.2867
      5  CB        40.3540   28.9950   26.1930 C.3    49  VAL49       0.0252
      6  CG1       39.2510   29.9680   26.5240 C.3    49  VAL49       0.0019
      7  CG2       41.1130   28.5940   27.4280 C.3    49  VAL49       0.0019
      8  N         36.0210   28.0420   21.7080 N.3    53  TYR53      -0.1241
      9  CA        35.5150   29.2230   21.0150 C.3    53  TYR53       0.1605
     10  C         35.3800   29.0030   19.5200 C.2    53  TYR53       0.2264
     11  O         34.4390   29.4950   18.9030 O.2    53  TYR53      -0.2867
     12  CB        36.4480   30.4120   21.2280 C.3    53  TYR53       0.0534
     13  CG        36.1570   31.2360   22.4480 C.ar   53  TYR53      -0.0201
     14  CD1       36.2020   30.6750   23.7180 C.ar   53  TYR53      -0.0009
     15  CD2       35.8490   32.5880   22.3330 C.ar   53  TYR53      -0.0009
     16  CE1       35.9480   31.4440   24.8510 C.ar   53  TYR53       0.0417
     17  CE2       35.5960   33.3670   23.4530 C.ar   53  TYR53       0.0417
     18  CZ        35.6470   32.7920   24.7080 C.ar   53  TYR53       0.1957
     19  OH        35.4110   33.5620   25.8190 O.3    53  TYR53      -0.2866
     20  N         46.3360   33.4330   20.1980 N.3    69  LEU69      -0.1245
     21  CA        45.7350   33.7900   21.4790 C.3    69  LEU69       0.1561
     22  C         46.7200   33.5840   22.6170 C.2    69  LEU69       0.2260
     23  O         46.8320   34.4230   23.5060 O.2    69  LEU69      -0.2867
     24  CB        44.4520   32.9800   21.7470 C.3    69  LEU69       0.0270
     25  CG        43.2340   33.3440   20.8880 C.3    69  LEU69       0.0019
     26  CD1       41.9820   32.7330   21.4980 C.3    69  LEU69       0.0001
     27  CD2       43.0910   34.8690   20.7950 C.3    69  LEU69       0.0001
     28  N         49.2890   36.2840   22.7830 N.3    72  LEU72      -0.1231
     29  CA        48.6040   37.5270   23.1030 C.3    72  LEU72       0.1693
     30  C         48.2960   37.6260   24.5790 C.2    72  LEU72       0.2592
     31  O         48.2870   38.7150   25.1360 O.2    72  LEU72      -0.2718
     32  CB        47.3160   37.6430   22.2930 C.3    72  LEU72       0.0284
     33  CG        47.2850   38.6940   21.1730 C.3    72  LEU72       0.0019
     34  CD1       48.6680   38.8920   20.5760 C.3    72  LEU72       0.0001
     35  CD2       46.2850   38.2580   20.1010 C.3    72  LEU72       0.0001
     36  N         48.0370   36.4910   25.2180 N.am   73  PHE73      -0.1976
     37  CA        47.7530   36.4870   26.6480 C.3    73  PHE73       0.1639
     38  C         49.0530   36.6330   27.4000 C.2    73  PHE73       0.2290
     39  O         49.1080   37.2720   28.4470 O.2    73  PHE73      -0.2864
     40  CB        47.0730   35.1930   27.0560 C.3    73  PHE73       0.0560
     41  CG        45.6150   35.1550   26.7310 C.ar   73  PHE73      -0.0200
     42  CD1       45.0610   34.0420   26.0990 C.ar   73  PHE73      -0.0042
     43  CD2       44.7830   36.2180   27.0740 C.ar   73  PHE73      -0.0042
     44  CE1       43.7050   33.9820   25.8150 C.ar   73  PHE73      -0.0003
     45  CE2       43.4250   36.1650   26.7940 C.ar   73  PHE73      -0.0003
     46  CZ        42.8950   35.0370   26.1640 C.ar   73  PHE73      -0.0000
     47  N         43.7260   45.6480   19.7950 N.3   139  PHE139     -0.1241
     48  CA        43.6590   44.9300   21.0550 C.3   139  PHE139      0.1605
     49  C         44.9330   45.1230   21.8680 C.2   139  PHE139      0.2264
     50  O         44.8730   45.3460   23.0780 O.2   139  PHE139     -0.2867
     51  CB        43.4370   43.4350   20.7950 C.3   139  PHE139      0.0534
     52  CG        43.6700   42.5770   22.0070 C.ar  139  PHE139     -0.0203
     53  CD1       42.7440   42.5400   23.0380 C.ar  139  PHE139     -0.0042
     54  CD2       44.8670   41.8870   22.1610 C.ar  139  PHE139     -0.0042
     55  CE1       43.0090   41.8450   24.2050 C.ar  139  PHE139     -0.0003
     56  CE2       45.1370   41.1870   23.3270 C.ar  139  PHE139     -0.0003
     57  CZ        44.2060   41.1680   24.3550 C.ar  139  PHE139     -0.0000
     58  N         38.6440   42.9710   22.2050 N.3   166  GLY166     -0.1210
     59  CA        39.0270   41.5710   22.1970 C.3   166  GLY166      0.1956
     60  C         37.9970   40.6690   21.5430 C.2   166  GLY166      0.2611
     61  O         38.3470   39.7560   20.7880 O.2   166  GLY166     -0.2717
     62  N         36.7200   40.9160   21.8310 N.am  167  LYS167     -0.1979
     63  CA        35.6540   40.1060   21.2530 C.3   167  LYS167      0.1596
     64  C         35.6460   40.3780   19.7560 C.2   167  LYS167      0.2287
     65  O         35.1900   39.5580   18.9680 O.2   167  LYS167     -0.2864
     66  CB        34.2960   40.4700   21.8680 C.3   167  LYS167      0.0298
     67  CG        34.3060   40.6420   23.3870 C.3   167  LYS167      0.0038
     68  CD        34.8150   39.4090   24.1280 C.3   167  LYS167      0.0206
     69  CE        35.1960   39.7680   25.5630 C.3   167  LYS167      0.1093
     70  NZ        34.0440   40.0880   26.4480 N.3   167  LYS167     -0.1314
     71  N         38.4340   40.9220   18.0680 N.3   169  LEU169     -0.1231
     72  CA        39.5740   40.1380   17.6140 C.3   169  LEU169      0.1693
     73  C         39.1000   38.7060   17.4310 C.2   169  LEU169      0.2591
     74  O         39.3640   38.0710   16.4110 O.2   169  LEU169     -0.2718
     75  CB        40.6910   40.1610   18.6670 C.3   169  LEU169      0.0284
     76  CG        42.1550   39.9540   18.2510 C.3   169  LEU169      0.0019
     77  CD1       42.9280   39.5160   19.4560 C.3   169  LEU169      0.0001
     78  CD2       42.2930   38.9190   17.1870 C.3   169  LEU169      0.0001
     79  N         38.3950   38.2040   18.4370 N.am  170  LEU170     -0.1980
     80  CA        37.8650   36.8480   18.4020 C.3   170  LEU170      0.1596
     81  C         37.0900   36.5620   17.1290 C.2   170  LEU170      0.2287
     82  O         37.2710   35.5170   16.5070 O.2   170  LEU170     -0.2864
     83  CB        36.9620   36.6070   19.6060 C.3   170  LEU170      0.0297
     84  CG        37.7220   36.4370   20.9120 C.3   170  LEU170      0.0022
     85  CD1       36.7460   36.3410   22.0700 C.3   170  LEU170      0.0001
     86  CD2       38.5910   35.1880   20.8210 C.3   170  LEU170      0.0001
     87  N         28.5960   37.5430   25.8370 N.3   201  LEU201     -0.1245
     88  CA        29.8840   36.9900   26.2430 C.3   201  LEU201      0.1561
     89  C         30.3900   37.6000   27.5480 C.2   201  LEU201      0.2260
     90  O         30.8480   36.8800   28.4390 O.2   201  LEU201     -0.2867
     91  CB        30.9090   37.2150   25.1280 C.3   201  LEU201      0.0270
     92  CG        31.5260   36.0380   24.3600 C.3   201  LEU201      0.0019
     93  CD1       30.5140   34.9510   24.0650 C.3   201  LEU201      0.0001
     94  CD2       32.1000   36.5810   23.0650 C.3   201  LEU201      0.0001
     95  N         30.6500   36.0370   31.5230 N.3   205  ASN205     -0.1240
     96  CA        31.9740   36.0700   32.1300 C.3   205  ASN205      0.1653
     97  C         31.8460   36.6720   33.5280 C.2   205  ASN205      0.2266
     98  O         32.2850   36.0740   34.5090 O.2   205  ASN205     -0.2867
     99  CB        32.9400   36.9090   31.2760 C.3   205  ASN205      0.1155
    100  CG        33.6250   36.0940   30.1830 C.2   205  ASN205      0.2627
    101  OD1       34.0340   36.6430   29.1550 O.2   205  ASN205     -0.2716
    102  ND2       33.7680   34.7850   30.4080 N.am  205  ASN205     -0.0877
    103  N         32.0880   29.7700   25.3560 N.3   282  ASN282     -0.1240
    104  CA        32.5570   30.6570   26.3990 C.3   282  ASN282      0.1653
    105  C         31.9430   30.2650   27.7310 C.2   282  ASN282      0.2266
    106  O         32.6170   30.2670   28.7610 O.2   282  ASN282     -0.2867
    107  CB        32.1920   32.1070   26.0880 C.3   282  ASN282      0.1155
    108  CG        32.5450   33.0510   27.2330 C.2   282  ASN282      0.2627
    109  OD1       33.7080   33.1630   27.6220 O.2   282  ASN282     -0.2716
    110  ND2       31.5400   33.7240   27.7850 N.am  282  ASN282     -0.0877
    111  N         33.3360   26.9770   29.0670 N.3   285  TRP285     -0.1241
    112  CA        34.6290   27.2810   29.6410 C.3   285  TRP285      0.1605
    113  C         34.4520   27.9570   30.9960 C.2   285  TRP285      0.2264
    114  O         34.9640   27.4800   32.0030 O.2   285  TRP285     -0.2867
    115  CB        35.4260   28.1890   28.7050 C.3   285  TRP285      0.0550
    116  CG        36.7560   28.5490   29.2620 C.ar  285  TRP285      0.0003
    117  CD1       37.7830   27.6950   29.5670 C.ar  285  TRP285      0.0946
    118  CD2       37.1870   29.8510   29.6540 C.ar  285  TRP285      0.0152
    119  NE1       38.8220   28.3900   30.1310 N.ar  285  TRP285     -0.2442
    120  CE2       38.4820   29.7160   30.1970 C.ar  285  TRP285      0.0810
    121  CE3       36.6010   31.1230   29.6030 C.ar  285  TRP285      0.0012
    122  CZ2       39.2030   30.8090   30.6870 C.ar  285  TRP285      0.0191
    123  CZ3       37.3180   32.2110   30.0920 C.ar  285  TRP285      0.0001
    124  CH2       38.6050   32.0450   30.6270 C.ar  285  TRP285      0.0015
@<TRIPOS>BOND
     1    74    73    2
     2    82    81    2
     3    81    80    1
     4    78    76    1
     5    73    72    1
     6    73    79   am
     7    72    71    1
     8    72    75    1
     9    76    75    1
    10    76    77    1
    11    80    79    1
    12    80    83    1
    13    11    10    2
    14    65    64    2
    15    10     9    1
    16    83    84    1
    17    64    63    1
    18    47    48    1
    19    35    33    1
    20    20    21    1
    21    34    33    1
    22    61    60    2
    23    27    25    1
    24    51    48    1
    25    51    52    1
    26    86    84    1
    27    25    26    1
    28    25    24    1
    29    84    85    1
    30     9    12    1
    31     9     8    1
    32    48    49    1
    33    33    32    1
    34    12    13    1
    35    63    62    1
    36    63    66    1
    37    21    24    1
    38    21    22    1
    39    60    62   am
    40    60    59    1
    41    49    50    2
    42    66    67    1
    43    52    54   ar
    44    52    53   ar
    45    54    56   ar
    46    59    58    1
    47    32    29    1
    48    15    13   ar
    49    15    17   ar
    50    13    14   ar
    51    22    23    2
    52    28    29    1
    53    53    55   ar
    54    94    92    1
    55    29    30    1
    56    56    57   ar
    57    67    68    1
    58    17    18   ar
    59     4     3    2
    60    14    16   ar
    61     3     2    1
    62    93    92    1
    63    68    69    1
    64    55    57   ar
    65    92    91    1
    66    30    31    2
    67    30    36   am
    68    18    16   ar
    69    18    19    1
    70    91    88    1
    71    36    37    1
    72   103   104    1
    73     2     1    1
    74     2     5    1
    75    69    70    1
    76    44    42   ar
    77    44    46   ar
    78    87    88    1
    79   107   104    1
    80   107   108    1
    81    42    41   ar
    82    46    45   ar
    83     5     6    1
    84     5     7    1
    85    88    89    1
    86   104   105    1
    87    37    40    1
    88    37    38    1
    89    41    40    1
    90    41    43   ar
    91    45    43   ar
    92   108   109    2
    93   108   110   am
    94    38    39    2
    95    89    90    2
    96   105   106    2
    97   115   116    1
    98   115   112    1
    99   111   112    1
   100   101   100    2
   101   116   117   ar
   102   116   118   ar
   103   117   119   ar
   104   121   118   ar
   105   121   123   ar
   106   112   113    1
   107   118   120   ar
   108   123   124   ar
   109   119   120   ar
   110   100   102   am
   111   100    99    1
   112   120   122   ar
   113   124   122   ar
   114   113   114    2
   115    99    96    1
   116    95    96    1
   117    96    97    1
   118    97    98    2
