@<TRIPOS>MOLECULE
tmp/1di8A00.pdb
 161 152 0 0 0
SMALL
GASTEIGER

@<TRIPOS>ATOM
      1  N        -13.5670   44.1420   14.5300 N.3    10  ILE10      -0.1245
      2  CA       -12.5840   44.4970   13.5130 C.3    10  ILE10       0.1561
      3  C        -11.2530   43.7670   13.6730 C.2    10  ILE10       0.2260
      4  O        -10.4420   43.7320   12.7460 O.2    10  ILE10      -0.2867
      5  CB       -12.3370   46.0250   13.5180 C.3    10  ILE10       0.0252
      6  CG1      -13.6130   46.7540   13.1030 C.3    10  ILE10       0.0019
      7  CG2      -11.2090   46.3820   12.5860 C.3    10  ILE10       0.0019
      8  CD1      -14.1770   46.2730   11.7920 C.3    10  ILE10       0.0001
      9  N         -5.7610   43.3110   18.8130 N.3    13  GLY13      -0.1225
     10  CA        -4.4910   43.9960   18.6880 C.3    13  GLY13       0.1811
     11  C         -3.5670   43.6620   19.8400 C.2    13  GLY13       0.2280
     12  O         -3.9020   42.8500   20.7030 O.2    13  GLY13      -0.2866
     13  N        -10.6150   45.5430   18.8220 N.3    18  VAL18      -0.1245
     14  CA       -11.1990   46.7220   18.2100 C.3    18  VAL18       0.1561
     15  C        -12.4980   46.3300   17.5320 C.2    18  VAL18       0.2260
     16  O        -12.5660   45.3100   16.8470 O.2    18  VAL18      -0.2867
     17  CB       -10.2490   47.3400   17.1580 C.3    18  VAL18       0.0252
     18  CG1      -10.7710   48.7080   16.7160 C.3    18  VAL18       0.0019
     19  CG2       -8.8480   47.4670   17.7360 C.3    18  VAL18       0.0019
     20  N        -14.3500   53.4360   15.7550 N.3    31  ALA31      -0.1245
     21  CA       -13.5580   52.2410   16.0250 C.3    31  ALA31       0.1562
     22  C        -13.4140   52.2210   17.5400 C.2    31  ALA31       0.2260
     23  O        -12.7780   53.1040   18.1150 O.2    31  ALA31      -0.2867
     24  CB       -12.1890   52.3370   15.3790 C.3    31  ALA31       0.0290
     25  N        -11.9680   50.5410   20.8920 N.3    33  LYS33      -0.1245
     26  CA       -10.9020   49.6580   21.3510 C.3    33  LYS33       0.1561
     27  C        -10.9840   49.3680   22.8530 C.2    33  LYS33       0.2260
     28  O        -10.9270   50.2770   23.6790 O.2    33  LYS33      -0.2867
     29  CB        -9.5380   50.2810   21.0100 C.3    33  LYS33       0.0271
     30  CG        -8.3380   49.3620   21.2080 C.3    33  LYS33       0.0035
     31  CD        -7.0440   50.0740   20.8240 C.3    33  LYS33       0.0206
     32  CE        -5.8270   49.1590   20.9510 C.3    33  LYS33       0.1093
     33  NZ        -5.8630   47.9980   20.0140 N.3    33  LYS33      -0.1314
     34  N         -4.4560   58.3730   13.0480 N.3    58  VAL58      -0.1245
     35  CA        -5.8390   58.0320   13.3780 C.3    58  VAL58       0.1561
     36  C         -6.2240   58.8240   14.6210 C.2    58  VAL58       0.2260
     37  O         -5.6380   58.6610   15.6850 O.2    58  VAL58      -0.2867
     38  CB        -6.0000   56.5190   13.6590 C.3    58  VAL58       0.0252
     39  CG1       -7.4310   56.2110   14.0750 C.3    58  VAL58       0.0019
     40  CG2       -5.6360   55.7260   12.4120 C.3    58  VAL58       0.0019
     41  N        -11.7690   55.7590   18.4670 N.3    74  PHE74      -0.1227
     42  CA       -10.9860   56.3190   17.3620 C.3    74  PHE74       0.1736
     43  C        -11.8650   56.5820   16.1360 C.2    74  PHE74       0.2595
     44  O        -12.9230   55.9700   15.9800 O.2    74  PHE74      -0.2718
     45  CB        -9.8690   55.3500   16.9480 C.3    74  PHE74       0.0547
     46  CG        -8.7980   55.1450   17.9950 C.ar   74  PHE74      -0.0202
     47  CD1       -8.8780   54.0910   18.8990 C.ar   74  PHE74      -0.0042
     48  CD2       -7.6940   55.9970   18.0550 C.ar   74  PHE74      -0.0042
     49  CE1       -7.8710   53.8790   19.8490 C.ar   74  PHE74      -0.0003
     50  CE2       -6.6820   55.7970   18.9980 C.ar   74  PHE74      -0.0003
     51  CZ        -6.7710   54.7340   19.8980 C.ar   74  PHE74      -0.0000
     52  N        -11.4350   57.4930   15.2650 N.am   75  GLU75      -0.1965
     53  CA       -12.2060   57.7550   14.0520 C.3    75  GLU75       0.1733
     54  C        -12.1630   56.4480   13.2640 C.2    75  GLU75       0.2616
     55  O        -11.2170   55.6700   13.3990 O.2    75  GLU75      -0.2715
     56  CB       -11.5750   58.8780   13.2270 C.3    75  GLU75       0.0429
     57  CG       -10.2260   58.5400   12.6230 C.3    75  GLU75       0.1163
     58  CD        -9.6970   59.6480   11.7410 C.2    75  GLU75       0.3649
     59  OE1      -10.4630   60.1420   10.8880 O.co2  75  GLU75      -0.2457
     60  OE2       -8.5170   60.0250   11.8900 O.co2  75  GLU75      -0.2457
     61  N        -13.1820   56.2070   12.4500 N.am   76  PHE76      -0.1960
     62  CA       -13.2610   54.9780   11.6670 C.3    76  PHE76       0.1771
     63  C        -12.7450   55.1880   10.2510 C.2    76  PHE76       0.2619
     64  O        -13.1000   56.1620    9.5900 O.2    76  PHE76      -0.2715
     65  CB       -14.7150   54.4940   11.6100 C.3    76  PHE76       0.0574
     66  CG       -14.8930   53.1670   10.9170 C.ar   76  PHE76      -0.0200
     67  CD1      -14.5210   51.9840   11.5440 C.ar   76  PHE76      -0.0042
     68  CD2      -15.4270   53.1040    9.6360 C.ar   76  PHE76      -0.0042
     69  CE1      -14.6800   50.7500   10.9040 C.ar   76  PHE76      -0.0003
     70  CE2      -15.5890   51.8820    8.9900 C.ar   76  PHE76      -0.0003
     71  CZ       -15.2140   50.7020    9.6260 C.ar   76  PHE76      -0.0000
     72  N        -11.8970   54.2790    9.7870 N.am   77  LEU77      -0.1963
     73  CA       -11.3790   54.3920    8.4360 C.3    77  LEU77       0.1728
     74  C        -11.8860   53.2680    7.5580 C.2    77  LEU77       0.2616
     75  O        -12.3810   52.2570    8.0430 O.2    77  LEU77      -0.2715
     76  CB        -9.8530   54.4830    8.4340 C.3    77  LEU77       0.0311
     77  CG        -9.5010   55.9740    8.5870 C.3    77  LEU77       0.0022
     78  CD1       -8.9880   56.2510    9.9770 C.3    77  LEU77       0.0001
     79  CD2       -8.4840   56.3910    7.5450 C.3    77  LEU77       0.0001
     80  N        -11.7530   53.4600    6.2550 N.am   78  HIS78      -0.1959
     81  CA       -12.2600   52.5270    5.2640 C.3    78  HIS78       0.1787
     82  C        -11.6390   51.1400    5.1110 C.2    78  HIS78       0.2620
     83  O        -12.3680   50.1650    4.9340 O.2    78  HIS78      -0.2715
     84  CB       -12.2700   53.2440    3.9130 C.3    78  HIS78       0.0785
     85  CG       -12.8740   54.6180    3.9690 C.ar   78  HIS78       0.0821
     86  ND1      -12.8390   55.4920    2.9020 N.ar   78  HIS78      -0.2267
     87  CD2      -13.5210   55.2670    4.9660 C.ar   78  HIS78       0.1154
     88  CE1      -13.4370   56.6220    3.2420 C.ar   78  HIS78       0.1986
     89  NE2      -13.8600   56.5110    4.4890 N.ar   78  HIS78      -0.2212
     90  N        -10.3130   51.0390    5.1720 N.am   79  GLN79      -0.1963
     91  CA        -9.6410   49.7520    4.9960 C.3    79  GLN79       0.1733
     92  C         -8.2230   49.8210    5.5630 C.2    79  GLN79       0.2616
     93  O         -7.7070   50.9110    5.7910 O.2    79  GLN79      -0.2715
     94  CB        -9.5850   49.4390    3.4980 C.3    79  GLN79       0.0408
     95  CG        -9.3350   47.9920    3.1440 C.3    79  GLN79       0.0908
     96  CD        -9.5600   47.7270    1.6710 C.2    79  GLN79       0.2608
     97  OE1       -8.6930   47.9940    0.8360 O.2    79  GLN79      -0.2717
     98  NE2      -10.7370   47.2150    1.3410 N.am   79  GLN79      -0.0878
     99  N         -7.6000   48.6690    5.8020 N.am   80  ASP80      -0.1971
    100  CA        -6.2220   48.6450    6.3020 C.3    80  ASP80       0.1709
    101  C         -5.2930   48.2640    5.1380 C.2    80  ASP80       0.2293
    102  O         -5.7250   47.5980    4.1880 O.2    80  ASP80      -0.2864
    103  CB        -6.0790   47.6680    7.4800 C.3    80  ASP80       0.1436
    104  CG        -6.1610   46.2030    7.0590 C.2    80  ASP80       0.3671
    105  OD1       -5.1830   45.6940    6.4740 O.co2  80  ASP80      -0.2456
    106  OD2       -7.2020   45.5590    7.3170 O.co2  80  ASP80      -0.2456
    107  N         -5.0130   44.4570    3.8990 N.3    83  LYS83      -0.1245
    108  CA        -6.1210   43.9960    3.0680 C.3    83  LYS83       0.1561
    109  C         -6.0140   44.5930    1.6700 C.2    83  LYS83       0.2260
    110  O         -6.3230   43.9300    0.6810 O.2    83  LYS83      -0.2867
    111  CB        -7.4600   44.3820    3.6980 C.3    83  LYS83       0.0271
    112  CG        -8.6630   43.8910    2.9200 C.3    83  LYS83       0.0035
    113  CD        -9.9600   44.2490    3.6270 C.3    83  LYS83       0.0206
    114  CE       -11.1640   43.7340    2.8530 C.3    83  LYS83       0.1093
    115  NZ       -12.4590   44.1220    3.4860 N.3    83  LYS83      -0.1314
    116  N         -1.0410   46.0800    8.9870 N.3   125  GLN125     -0.1231
    117  CA        -2.3610   46.0080    9.6070 C.3   125  GLN125      0.1698
    118  C         -2.6620   47.2680   10.4230 C.2   125  GLN125      0.2592
    119  O         -3.8280   47.5890   10.6670 O.2   125  GLN125     -0.2718
    120  CB        -2.4750   44.7810   10.5250 C.3   125  GLN125      0.0381
    121  CG        -2.2720   43.4340    9.8390 C.3   125  GLN125      0.0905
    122  CD        -0.8420   42.9170    9.9540 C.2   125  GLN125      0.2608
    123  OE1        0.1020   43.5120    9.4240 O.2   125  GLN125     -0.2717
    124  NE2       -0.6790   41.8020   10.6550 N.am  125  GLN125     -0.0878
    125  N         -1.6070   47.9660   10.8450 N.am  126  ASN126     -0.1974
    126  CA        -1.7390   49.1940   11.6360 C.3   126  ASN126      0.1688
    127  C         -1.8690   50.4550   10.7820 C.2   126  ASN126      0.2292
    128  O         -2.0230   51.5500   11.3240 O.2   126  ASN126     -0.2864
    129  CB        -0.5190   49.3920   12.5530 C.3   126  ASN126      0.1181
    130  CG        -0.5090   48.4490   13.7310 C.2   126  ASN126      0.2629
    131  OD1       -1.5390   47.8820   14.0990 O.2   126  ASN126     -0.2716
    132  ND2        0.6560   48.2900   14.3490 N.am  126  ASN126     -0.0877
    133  N         -3.9440   52.5670    8.0490 N.3   128  LEU128     -0.1245
    134  CA        -5.2980   52.6870    7.5230 C.3   128  LEU128      0.1561
    135  C         -5.4260   53.6970    6.4010 C.2   128  LEU128      0.2260
    136  O         -4.8470   54.7830    6.4580 O.2   128  LEU128     -0.2867
    137  CB        -6.2470   53.0690    8.6570 C.3   128  LEU128      0.0270
    138  CG        -6.1130   52.1530    9.8680 C.3   128  LEU128      0.0019
    139  CD1       -6.8420   52.7630   11.0440 C.3   128  LEU128      0.0001
    140  CD2       -6.6510   50.7660    9.5250 C.3   128  LEU128      0.0001
    141  N         -2.1820   53.9530   13.0230 N.3   138  ALA138     -0.1231
    142  CA        -3.0440   53.6210   14.1600 C.3   138  ALA138      0.1694
    143  C         -2.1460   53.0290   15.2440 C.2   138  ALA138      0.2592
    144  O         -1.0920   52.4990   14.9270 O.2   138  ALA138     -0.2718
    145  CB        -4.0990   52.5960   13.7430 C.3   138  ALA138      0.0304
    146  N         -2.5680   53.1130   16.5060 N.am  139  ASP139     -0.1974
    147  CA        -1.8110   52.5880   17.6580 C.3   139  ASP139      0.1709
    148  C         -0.6550   53.4570   18.1560 C.2   139  ASP139      0.2293
    149  O          0.0210   53.0980   19.1190 O.2   139  ASP139     -0.2864
    150  CB        -1.2560   51.1850   17.3740 C.3   139  ASP139      0.1436
    151  CG        -2.2480   50.0840   17.6950 C.2   139  ASP139      0.3671
    152  OD1       -2.8410   50.1120   18.7920 O.co2 139  ASP139     -0.2456
    153  OD2       -2.4270   49.1770   16.8570 O.co2 139  ASP139     -0.2456
    154  N          0.5520   53.8420   22.1200 N.3   142  LEU142     -0.1245
    155  CA        -0.0180   52.9150   23.0950 C.3   142  LEU142      0.1561
    156  C          1.0480   52.0620   23.7790 C.2   142  LEU142      0.2260
    157  O          0.8550   51.6070   24.9080 O.2   142  LEU142     -0.2867
    158  CB        -1.0590   52.0000   22.4440 C.3   142  LEU142      0.0270
    159  CG        -2.3420   52.6400   21.9030 C.3   142  LEU142      0.0019
    160  CD1       -3.3380   51.5380   21.5820 C.3   142  LEU142      0.0001
    161  CD2       -2.9340   53.5990   22.9280 C.3   142  LEU142      0.0001
@<TRIPOS>BOND
     1   110   109    2
     2    97    96    2
     3    98    96   am
     4   109   108    1
     5    96    95    1
     6   114   115    1
     7   114   113    1
     8    86    88   ar
     9    86    85   ar
    10   112   113    1
    11   112   111    1
    12   108   111    1
    13   108   107    1
    14    95    94    1
    15    88    89   ar
    16    94    91    1
    17    84    85    1
    18    84    81    1
    19    85    87   ar
    20   102   101    2
    21    89    87   ar
    22    83    82    2
    23    91    90    1
    24    91    92    1
    25    82    90   am
    26    82    81    1
    27   101   100    1
    28    81    80    1
    29    92    93    2
    30    92    99   am
    31    99   100    1
    32    80    74   am
    33   100   103    1
    34   135   136    2
    35   135   134    1
    36   105   104   ar
    37   104   106   ar
    38   104   103    1
    39   134   133    1
    40   134   137    1
    41    79    77    1
    42    74    75    2
    43    74    73    1
    44    76    73    1
    45    76    77    1
    46    73    72    1
    47    77    78    1
    48   137   138    1
    49   116   117    1
    50    70    71   ar
    51    70    68   ar
    52   123   122    2
    53   140   138    1
    54    64    63    2
    55   117   118    1
    56   117   120    1
    57    71    69   ar
    58    68    66   ar
    59    72    63   am
    60   121   122    1
    61   121   120    1
    62   138   139    1
    63   122   124   am
    64    63    62    1
    65   118   119    2
    66   118   125   am
    67   127   128    2
    68   127   126    1
    69   125   126    1
    70    59    58   ar
    71    69    67   ar
    72    66    67   ar
    73    66    65    1
    74    65    62    1
    75   126   129    1
    76    62    61    1
    77    58    60   ar
    78    58    57    1
    79     8     6    1
    80    40    38    1
    81    61    54   am
    82   129   130    1
    83     7     5    1
    84    57    56    1
    85     4     3    2
    86   141   142    1
    87    34    35    1
    88     6     5    1
    89    56    53    1
    90    54    55    2
    91    54    53    1
    92    35    38    1
    93    35    36    1
    94     2     5    1
    95     2     3    1
    96     2     1    1
    97    38    39    1
    98   130   131    2
    99   130   132   am
   100   145   142    1
   101    53    52    1
   102   142   143    1
   103    36    37    2
   104   144   143    2
   105   143   146   am
   106    52    43   am
   107    24    21    1
   108    20    21    1
   109    44    43    2
   110    21    22    1
   111    43    42    1
   112   146   147    1
   113    18    17    1
   114    16    15    2
   115   153   151   ar
   116    45    42    1
   117    45    46    1
   118    17    19    1
   119    17    14    1
   120    42    41    1
   121   150   147    1
   122   150   151    1
   123    15    14    1
   124    22    23    2
   125   147   148    1
   126   151   152   ar
   127    46    48   ar
   128    46    47   ar
   129    48    50   ar
   130   148   149    2
   131    14    13    1
   132    10     9    1
   133    10    11    1
   134    47    49   ar
   135    50    51   ar
   136    11    12    2
   137    49    51   ar
   138    33    32    1
   139    31    32    1
   140    31    30    1
   141    25    26    1
   142    29    30    1
   143    29    26    1
   144    26    27    1
   145   160   159    1
   146   159   158    1
   147   159   161    1
   148   154   155    1
   149   158   155    1
   150    27    28    2
   151   155   156    1
   152   156   157    2
