@<TRIPOS>MOLECULE
tmp/1di9A00.pdb
 118 109 0 0 0
SMALL
GASTEIGER

@<TRIPOS>ATOM
      1  N         46.6020   31.2200   23.0800 N.3    27  VAL27      -0.1231
      2  CA        47.6270   31.1810   24.1190 C.3    27  VAL27       0.1692
      3  C         47.8270   29.7330   24.5520 C.2    27  VAL27       0.2592
      4  O         48.7870   29.4070   25.2550 O.2    27  VAL27      -0.2718
      5  CB        47.2350   32.0180   25.3610 C.3    27  VAL27       0.0266
      6  CG1       47.2590   33.4990   25.0250 C.3    27  VAL27       0.0020
      7  CG2       45.8650   31.6030   25.8570 C.3    27  VAL27       0.0020
      8  N         46.9170   28.8640   24.1220 N.am   28  GLY28      -0.1957
      9  CA        47.0210   27.4630   24.4800 C.3    28  GLY28       0.1869
     10  C         45.7480   26.6810   24.2320 C.2    28  GLY28       0.2309
     11  O         44.6470   27.1770   24.4840 O.2    28  GLY28      -0.2863
     12  N         42.1350   28.3920   24.4500 N.3    35  VAL35      -0.1245
     13  CA        41.9280   29.6570   25.1500 C.3    35  VAL35       0.1561
     14  C         42.5250   30.8120   24.3380 C.2    35  VAL35       0.2260
     15  O         43.6390   30.7030   23.8260 O.2    35  VAL35      -0.2867
     16  CB        42.6030   29.6440   26.5440 C.3    35  VAL35       0.0252
     17  CG1       42.4050   30.9820   27.2360 C.3    35  VAL35       0.0019
     18  CG2       42.0230   28.5310   27.3920 C.3    35  VAL35       0.0019
     19  N         40.5630   36.3500   29.0880 N.3    48  ALA48      -0.1245
     20  CA        40.9060   35.0410   28.5870 C.3    48  ALA48       0.1562
     21  C         39.5620   34.4720   28.1600 C.2    48  ALA48       0.2260
     22  O         38.6010   34.5040   28.9270 O.2    48  ALA48      -0.2867
     23  CB        41.5130   34.2040   29.6860 C.3    48  ALA48       0.0290
     24  N         37.7280   31.1010   26.8010 N.3    50  LYS50      -0.1245
     25  CA        37.8550   29.6720   26.6000 C.3    50  LYS50       0.1561
     26  C         36.6320   29.0820   25.9300 C.2    50  LYS50       0.2260
     27  O         35.5060   29.2350   26.4150 O.2    50  LYS50      -0.2867
     28  CB        38.0790   28.9780   27.9440 C.3    50  LYS50       0.0271
     29  CG        38.2620   27.4650   27.8690 C.3    50  LYS50       0.0035
     30  CD        38.2920   26.8680   29.2780 C.3    50  LYS50       0.0206
     31  CE        38.4860   25.3640   29.2590 C.3    50  LYS50       0.1093
     32  NZ        38.3240   24.8000   30.6230 N.3    50  LYS50      -0.1314
     33  N         32.3490   23.0810   35.8690 N.3    68  GLU68      -0.1245
     34  CA        33.1590   24.2790   35.6990 C.3    68  GLU68       0.1567
     35  C         32.3570   25.5790   35.6190 C.2    68  GLU68       0.2260
     36  O         32.8160   26.6180   36.0830 O.2    68  GLU68      -0.2867
     37  CB        34.0360   24.1530   34.4580 C.3    68  GLU68       0.0388
     38  CG        34.8320   25.3970   34.1560 C.3    68  GLU68       0.1160
     39  CD        35.9430   25.1230   33.1780 C.2    68  GLU68       0.3649
     40  OE1       35.6840   24.3920   32.2080 O.co2  68  GLU68      -0.2457
     41  OE2       37.0690   25.6360   33.3720 O.co2  68  GLU68      -0.2457
     42  N         32.8790   28.4760   38.4620 N.3    72  LEU72      -0.1245
     43  CA        33.3300   29.8110   38.0690 C.3    72  LEU72       0.1561
     44  C         32.2800   30.8670   38.3890 C.2    72  LEU72       0.2260
     45  O         32.6170   32.0150   38.6830 O.2    72  LEU72      -0.2867
     46  CB        33.6690   29.8530   36.5770 C.3    72  LEU72       0.0270
     47  CG        34.9310   29.0840   36.1690 C.3    72  LEU72       0.0019
     48  CD1       34.9890   28.9070   34.6430 C.3    72  LEU72       0.0001
     49  CD2       36.1490   29.8260   36.6920 C.3    72  LEU72       0.0001
     50  N         39.9490   33.7860   40.7870 N.3    81  ILE81      -0.1245
     51  CA        39.4610   34.2670   39.5040 C.3    81  ILE81       0.1561
     52  C         38.0080   33.8510   39.3400 C.2    81  ILE81       0.2260
     53  O         37.6700   32.6640   39.4190 O.2    81  ILE81      -0.2867
     54  CB        40.3090   33.7230   38.3220 C.3    81  ILE81       0.0252
     55  CG1       41.6030   34.5370   38.2060 C.3    81  ILE81       0.0019
     56  CG2       39.5270   33.8120   37.0160 C.3    81  ILE81       0.0019
     57  CD1       42.5410   34.0720   37.1180 C.3    81  ILE81       0.0001
     58  N         33.7230   30.5630   28.0010 N.3   101  LEU101     -0.1245
     59  CA        33.8890   31.1260   29.3410 C.3   101  LEU101      0.1561
     60  C         34.8790   32.2710   29.2520 C.2   101  LEU101      0.2260
     61  O         35.9050   32.1670   28.5720 O.2   101  LEU101     -0.2867
     62  CB        34.4340   30.0810   30.3140 C.3   101  LEU101      0.0270
     63  CG        33.6110   28.8110   30.4510 C.3   101  LEU101      0.0019
     64  CD1       34.4880   27.7310   31.0570 C.3   101  LEU101      0.0001
     65  CD2       32.3670   29.0840   31.2870 C.3   101  LEU101      0.0001
     66  N         37.1260   35.1140   31.5550 N.3   103  THR103     -0.1203
     67  CA        37.6550   35.5200   32.8520 C.3   103  THR103      0.1994
     68  C         38.7690   36.5280   32.6410 C.2   103  THR103      0.2618
     69  O         39.1330   36.8360   31.5060 O.2   103  THR103     -0.2717
     70  CB        38.2790   34.3560   33.6060 C.3   103  THR103      0.1784
     71  OG1       39.4790   33.9570   32.9320 O.3   103  THR103     -0.2211
     72  CG2       37.3200   33.1860   33.6700 C.3   103  THR103      0.0376
     73  N         39.3050   37.0480   33.7390 N.am  104  HIS104     -0.1961
     74  CA        40.4070   37.9870   33.6410 C.3   104  HIS104      0.1787
     75  C         41.5240   37.2120   32.9400 C.2   104  HIS104      0.2620
     76  O         41.5470   35.9760   32.9690 O.2   104  HIS104     -0.2715
     77  CB        40.8680   38.4250   35.0360 C.3   104  HIS104      0.0785
     78  CG        39.8850   39.2950   35.7600 C.ar  104  HIS104      0.0821
     79  ND1       39.6630   40.6140   35.4190 N.ar  104  HIS104     -0.2267
     80  CD2       39.0750   39.0380   36.8160 C.ar  104  HIS104      0.1154
     81  CE1       38.7610   41.1310   36.2360 C.ar  104  HIS104      0.1986
     82  NE2       38.3880   40.1960   37.0940 N.ar  104  HIS104     -0.2212
     83  N         42.4360   37.9350   32.3000 N.am  105  LEU105     -0.1963
     84  CA        43.5470   37.3130   31.5890 C.3   105  LEU105      0.1728
     85  C         44.7660   37.3400   32.4910 C.2   105  LEU105      0.2616
     86  O         45.1290   38.3930   33.0140 O.2   105  LEU105     -0.2715
     87  CB        43.8470   38.0840   30.2990 C.3   105  LEU105      0.0311
     88  CG        45.0480   37.6540   29.4570 C.3   105  LEU105      0.0022
     89  CD1       44.7670   36.3210   28.7850 C.3   105  LEU105      0.0001
     90  CD2       45.3280   38.7100   28.4110 C.3   105  LEU105      0.0001
     91  N         45.3900   36.1810   32.6780 N.am  106  MET106     -0.1963
     92  CA        46.5820   36.0750   33.5110 C.3   106  MET106      0.1736
     93  C         47.7900   36.6220   32.7710 C.2   106  MET106      0.2617
     94  O         48.0900   36.2030   31.6570 O.2   106  MET106     -0.2715
     95  CB        46.8420   34.6140   33.8920 C.3   106  MET106      0.0427
     96  CG        48.2280   34.3500   34.4820 C.3   106  MET106      0.0599
     97  SD        48.3770   32.6990   35.2120 S.3   106  MET106     -0.1393
     98  CE        47.9950   31.6430   33.7870 C.3   106  MET106      0.0692
     99  N         48.4760   37.5690   33.3920 N.am  107  GLY107     -0.1955
    100  CA        49.6570   38.1300   32.7730 C.3   107  GLY107      0.1869
    101  C         50.8550   37.2380   33.0400 C.2   107  GLY107      0.2309
    102  O         51.5520   36.8240   32.1160 O.2   107  GLY107     -0.2863
    103  N         43.4010   30.4440   40.3110 N.3   164  LEU164     -0.1231
    104  CA        42.5490   30.0450   39.2050 C.3   164  LEU164      0.1693
    105  C         42.7960   28.6100   38.7710 C.2   164  LEU164      0.2592
    106  O         43.5330   27.8640   39.4220 O.2   164  LEU164     -0.2718
    107  CB        42.7610   30.9630   38.0060 C.3   164  LEU164      0.0284
    108  CG        44.0610   30.7270   37.2400 C.3   164  LEU164      0.0019
    109  CD1       43.7840   30.8220   35.7460 C.3   164  LEU164      0.0001
    110  CD2       45.1110   31.7200   37.6770 C.3   164  LEU164      0.0001
    111  N         42.1590   28.2430   37.6580 N.am  165  ASP165     -0.1974
    112  CA        42.2870   26.9150   37.0720 C.3   165  ASP165      0.1709
    113  C         42.1320   25.8190   38.1290 C.2   165  ASP165      0.2293
    114  O         43.0850   25.1050   38.4500 O.2   165  ASP165     -0.2864
    115  CB        43.6500   26.8050   36.3840 C.3   165  ASP165      0.1436
    116  CG        43.6680   25.7760   35.2720 C.2   165  ASP165      0.3671
    117  OD1       42.6100   25.1720   34.9880 O.co2 165  ASP165     -0.2456
    118  OD2       44.7530   25.5810   34.6780 O.co2 165  ASP165     -0.2456
@<TRIPOS>BOND
     1     1     2    1
     2    15    14    2
     3     2     3    1
     4     2     5    1
     5     8     9    1
     6     8     3   am
     7    10     9    1
     8    10    11    2
     9    14    13    1
    10    12    13    1
    11     3     4    2
    12     6     5    1
    13    13    16    1
    14     5     7    1
    15    26    27    2
    16    26    25    1
    17    16    17    1
    18    16    18    1
    19    25    24    1
    20    25    28    1
    21    29    28    1
    22    29    30    1
    23    58    59    1
    24    21    20    1
    25    21    22    2
    26    90    88    1
    27    61    60    2
    28    20    19    1
    29    20    23    1
    30    89    88    1
    31    60    59    1
    32    31    30    1
    33    31    32    1
    34    59    62    1
    35    88    87    1
    36    87    84    1
    37    62    63    1
    38    63    64    1
    39    63    65    1
    40    69    68    2
    41    66    67    1
    42    84    83    1
    43    84    85    1
    44    94    93    2
    45   102   101    2
    46    40    39   ar
    47    83    75   am
    48    85    91   am
    49    85    86    2
    50    68    67    1
    51    68    73   am
    52    91    92    1
    53    93    99   am
    54    93    92    1
    55   100   101    1
    56   100    99    1
    57    67    70    1
    58    71    70    1
    59    75    76    2
    60    75    74    1
    61    39    41   ar
    62    39    38    1
    63    92    95    1
    64    70    72    1
    65    74    73    1
    66    74    77    1
    67    98    97    1
    68    95    96    1
    69    38    37    1
    70    37    34    1
    71    96    97    1
    72    48    47    1
    73   118   116   ar
    74   117   116   ar
    75    77    78    1
    76   116   115    1
    77    79    78   ar
    78    79    81   ar
    79    35    34    1
    80    35    36    2
    81    34    33    1
    82   109   108    1
    83    78    80   ar
    84    47    46    1
    85    47    49    1
    86    81    82   ar
    87   115   112    1
    88    46    43    1
    89    80    82   ar
    90    56    54    1
    91   112   111    1
    92   112   113    1
    93    57    55    1
    94   108   110    1
    95   108   107    1
    96   111   105   am
    97   107   104    1
    98    43    44    1
    99    43    42    1
   100   113   114    2
   101    55    54    1
   102    54    51    1
   103    44    45    2
   104   105   104    1
   105   105   106    2
   106   104   103    1
   107    52    53    2
   108    52    51    1
   109    51    50    1
