@<TRIPOS>MOLECULE
tmp/1diaA01.pdb
 120 114 0 0 0
SMALL
GASTEIGER

@<TRIPOS>ATOM
      1  N         10.7940   63.4770   25.4750 N.3     9  LYS9       -0.1245
      2  CA        10.9180   64.3390   24.3030 C.3     9  LYS9        0.1561
      3  C         12.3780   64.7380   24.0430 C.2     9  LYS9        0.2260
      4  O         12.7860   64.8940   22.8980 O.2     9  LYS9       -0.2867
      5  CB         9.9960   65.5630   24.4000 C.3     9  LYS9        0.0271
      6  CG        10.6480   66.8200   24.9320 C.3     9  LYS9        0.0035
      7  CD         9.7860   68.0560   24.6950 C.3     9  LYS9        0.0206
      8  CE         9.6040   68.3570   23.2030 C.3     9  LYS9        0.1093
      9  NZ         8.9080   69.6670   22.9800 N.3     9  LYS9       -0.1314
     10  N         -1.6100   60.5110   14.5700 N.3    51  TYR51      -0.1241
     11  CA        -0.5300   59.5910   14.9270 C.3    51  TYR51       0.1605
     12  C          0.3610   59.3070   13.7240 C.2    51  TYR51       0.2264
     13  O          1.5860   59.2210   13.8470 O.2    51  TYR51      -0.2867
     14  CB        -1.1100   58.2820   15.4610 C.3    51  TYR51       0.0534
     15  CG        -1.7990   58.4190   16.8030 C.ar   51  TYR51      -0.0201
     16  CD1       -2.7570   57.4880   17.2190 C.ar   51  TYR51      -0.0009
     17  CD2       -1.4710   59.4610   17.6730 C.ar   51  TYR51      -0.0009
     18  CE1       -3.3710   57.5930   18.4720 C.ar   51  TYR51       0.0417
     19  CE2       -2.0730   59.5760   18.9240 C.ar   51  TYR51       0.0417
     20  CZ        -3.0180   58.6380   19.3180 C.ar   51  TYR51       0.1957
     21  OH        -3.5860   58.7380   20.5660 O.3    51  TYR51      -0.2866
     22  N          2.5300   62.4050   12.7860 N.3    54  VAL54      -0.1231
     23  CA         3.6930   62.4780   13.6630 C.3    54  VAL54       0.1692
     24  C          4.7850   61.5420   13.1560 C.2    54  VAL54       0.2591
     25  O          5.9570   61.9160   13.0980 O.2    54  VAL54      -0.2718
     26  CB         3.3180   62.0910   15.1170 C.3    54  VAL54       0.0266
     27  CG1        4.5550   62.0580   16.0010 C.3    54  VAL54       0.0020
     28  CG2        2.3230   63.0770   15.6800 C.3    54  VAL54       0.0020
     29  N          4.3900   60.3240   12.7900 N.am   55  LYS55      -0.1980
     30  CA         5.3330   59.3260   12.2840 C.3    55  LYS55       0.1596
     31  C          5.9200   59.7790   10.9550 C.2    55  LYS55       0.2287
     32  O          7.0960   59.5480   10.6850 O.2    55  LYS55      -0.2864
     33  CB         4.6580   57.9600   12.1130 C.3    55  LYS55       0.0298
     34  CG         4.1590   57.3290   13.3990 C.3    55  LYS55       0.0038
     35  CD         3.3330   56.0940   13.0990 C.3    55  LYS55       0.0206
     36  CE         2.6550   55.5760   14.3480 C.3    55  LYS55       0.1093
     37  NZ         1.7920   54.4050   14.0710 N.3    55  LYS55      -0.1314
     38  N         -1.6600   50.6240   10.4550 N.3    99  GLN99      -0.1231
     39  CA        -2.1070   51.4590   11.5600 C.3    99  GLN99       0.1698
     40  C         -3.3060   50.8070   12.2320 C.2    99  GLN99       0.2592
     41  O         -4.2370   50.3670   11.5660 O.2    99  GLN99      -0.2718
     42  CB        -2.4930   52.8460   11.0480 C.3    99  GLN99       0.0381
     43  CG        -2.8540   53.8380   12.1360 C.3    99  GLN99       0.0905
     44  CD        -1.6810   54.1870   13.0340 C.2    99  GLN99       0.2608
     45  OE1       -0.5280   54.2440   12.5890 O.2    99  GLN99      -0.2717
     46  NE2       -1.9700   54.4300   14.3090 N.am   99  GLN99      -0.0878
     47  N         -3.2740   50.7360   13.5570 N.am  100  LEU100     -0.1966
     48  CA        -4.3580   50.1200   14.3150 C.3   100  LEU100      0.1713
     49  C         -5.0220   51.1340   15.2400 C.2   100  LEU100      0.2458
     50  O         -4.3730   52.0640   15.7220 O.2   100  LEU100     -0.2730
     51  CB        -3.8330   48.9190   15.1210 C.3   100  LEU100      0.0310
     52  CG        -3.2660   47.7410   14.3090 C.3   100  LEU100      0.0022
     53  CD1       -2.7480   46.6310   15.2330 C.3   100  LEU100      0.0001
     54  CD2       -4.3350   47.1990   13.3700 C.3   100  LEU100      0.0001
     55  N         -6.3310   50.9620   15.5070 N.am  101  PRO101     -0.2727
     56  CA        -7.2030   49.8890   14.9990 C.3   101  PRO101      0.1402
     57  C         -7.7520   50.1630   13.5970 C.2   101  PRO101      0.2269
     58  O         -7.8880   51.3190   13.1980 O.2   101  PRO101     -0.2865
     59  CB        -8.3190   49.8580   16.0330 C.3   101  PRO101      0.0296
     60  CG        -8.4840   51.3130   16.3510 C.3   101  PRO101      0.0237
     61  CD        -7.0570   51.8160   16.4690 C.3   101  PRO101      0.0939
     62  N          0.2270   44.7620   21.7730 N.3   175  ILE175     -0.1245
     63  CA         0.9420   45.9880   21.4170 C.3   175  ILE175      0.1561
     64  C          1.9020   46.4930   22.4940 C.2   175  ILE175      0.2260
     65  O          2.9550   47.0400   22.1750 O.2   175  ILE175     -0.2867
     66  CB        -0.0460   47.1590   21.0960 C.3   175  ILE175      0.0252
     67  CG1       -1.1980   46.6750   20.2160 C.3   175  ILE175      0.0019
     68  CG2        0.6800   48.2760   20.3530 C.3   175  ILE175      0.0019
     69  CD1       -0.7780   46.2870   18.8210 C.3   175  ILE175      0.0001
     70  N         -2.3620   57.0430   27.6470 N.3   237  ILE237     -0.1245
     71  CA        -2.7650   58.2350   26.8910 C.3   237  ILE237      0.1561
     72  C         -4.2930   58.2950   27.0600 C.2   237  ILE237      0.2260
     73  O         -5.0380   57.6670   26.3030 O.2   237  ILE237     -0.2867
     74  CB        -2.4140   58.1160   25.3770 C.3   237  ILE237      0.0252
     75  CG1       -0.9080   57.9240   25.1780 C.3   237  ILE237      0.0019
     76  CG2       -2.8700   59.3640   24.6250 C.3   237  ILE237      0.0019
     77  CD1       -0.0690   59.1340   25.5650 C.3   237  ILE237      0.0001
     78  N         -5.0550   65.4830   28.9560 N.3   241  VAL241     -0.1245
     79  CA        -4.4220   64.1820   28.7460 C.3   241  VAL241      0.1561
     80  C         -3.7200   63.7500   30.0370 C.2   241  VAL241      0.2260
     81  O         -3.0310   64.5520   30.6800 O.2   241  VAL241     -0.2867
     82  CB        -3.3890   64.2280   27.5850 C.3   241  VAL241      0.0252
     83  CG1       -2.8560   62.8280   27.2680 C.3   241  VAL241      0.0019
     84  CG2       -4.0170   64.8470   26.3540 C.3   241  VAL241      0.0019
     85  N          1.7980   64.2810   28.8890 N.3   261  PRO261     -0.2102
     86  CA         2.5540   63.7610   27.7400 C.3   261  PRO261      0.1504
     87  C          4.0610   64.0040   27.8490 C.2   261  PRO261      0.2576
     88  O          4.5530   64.4490   28.8820 O.2   261  PRO261     -0.2718
     89  CB         1.9620   64.5490   26.5800 C.3   261  PRO261      0.0282
     90  CG         1.7640   65.8970   27.1990 C.3   261  PRO261      0.0208
     91  CD         1.1360   65.5520   28.5410 C.3   261  PRO261      0.0893
     92  N          4.7880   63.7130   26.7740 N.am  262  GLY262     -0.1957
     93  CA         6.2260   63.9210   26.7660 C.3   262  GLY262      0.1869
     94  C          7.0480   62.8350   27.4390 C.2   262  GLY262      0.2309
     95  O          8.2000   63.0760   27.8270 O.2   262  GLY262     -0.2863
     96  N          5.2440   58.3880   24.7700 N.3   265  GLY265     -0.1210
     97  CA         4.7990   58.7170   23.4250 C.3   265  GLY265      0.1940
     98  C          5.8910   59.0290   22.4100 C.2   265  GLY265      0.2453
     99  O          5.9520   58.3980   21.3500 O.2   265  GLY265     -0.2732
    100  N          6.7470   60.0250   22.6850 N.am  266  PRO266     -0.2728
    101  CA         7.8340   60.3990   21.7700 C.3   266  PRO266      0.1401
    102  C          8.8200   59.2510   21.5080 C.2   266  PRO266      0.2269
    103  O          9.2500   59.0240   20.3730 O.2   266  PRO266     -0.2865
    104  CB         8.5090   61.5570   22.5100 C.3   266  PRO266      0.0296
    105  CG         7.3680   62.1790   23.2820 C.3   266  PRO266      0.0237
    106  CD         6.6460   60.9760   23.8100 C.3   266  PRO266      0.0939
    107  N          8.2730   56.1480   21.5150 N.3   268  THR268     -0.1203
    108  CA         7.6260   55.1490   20.6750 C.3   268  THR268      0.1994
    109  C          7.8700   55.4090   19.1870 C.2   268  THR268      0.2617
    110  O          8.1360   54.4730   18.4300 O.2   268  THR268     -0.2717
    111  CB         6.1080   55.0920   20.9750 C.3   268  THR268      0.1784
    112  OG1        5.9020   54.5610   22.2950 O.3   268  THR268     -0.2211
    113  CG2        5.3850   54.2140   19.9630 C.3   268  THR268      0.0376
    114  N          7.7880   56.6750   18.7670 N.am  269  VAL269     -0.1979
    115  CA         8.0220   57.0230   17.3660 C.3   269  VAL269      0.1595
    116  C          9.5030   56.9550   17.0070 C.2   269  VAL269      0.2287
    117  O          9.8610   56.5610   15.8970 O.2   269  VAL269     -0.2864
    118  CB         7.4530   58.4070   17.0190 C.3   269  VAL269      0.0276
    119  CG1        7.8190   58.8000   15.5900 C.3   269  VAL269      0.0022
    120  CG2        5.9570   58.3720   17.1520 C.3   269  VAL269      0.0022
@<TRIPOS>BOND
     1    38    39    1
     2    32    31    2
     3    31    30    1
     4    42    39    1
     5    42    43    1
     6    39    40    1
     7    41    40    2
     8    33    30    1
     9    33    34    1
    10    43    44    1
    11    40    47   am
    12    30    29    1
    13    45    44    2
    14    22    23    1
    15    29    24   am
    16    44    46   am
    17    25    24    2
    18    35    34    1
    19    35    36    1
    20    24    23    1
    21    58    57    2
    22    54    52    1
    23    47    48    1
    24    57    56    1
    25    23    26    1
    26    12    13    2
    27    12    11    1
    28    37    36    1
    29    52    51    1
    30    52    53    1
    31    48    51    1
    32    48    49    1
    33    10    11    1
    34    11    14    1
    35    56    55    1
    36    56    59    1
    37    26    28    1
    38    26    27    1
    39    49    55   am
    40    49    50    2
    41    14    15    1
    42    55    61    1
    43   119   118    1
    44   117   116    2
    45    59    60    1
    46    60    61    1
    47    15    16   ar
    48    15    17   ar
    49   116   115    1
    50   118   120    1
    51   118   115    1
    52    16    18   ar
    53   115   114    1
    54    17    19   ar
    55   110   109    2
    56    18    20   ar
    57   114   109   am
    58    69    67    1
    59    19    20   ar
    60   109   108    1
    61    20    21    1
    62   113   111    1
    63    67    66    1
    64    68    66    1
    65   103   102    2
    66   108   111    1
    67   108   107    1
    68   111   112    1
    69    66    63    1
    70    99    98    2
    71    63    62    1
    72    63    64    1
    73   102   101    1
    74   101   104    1
    75   101   100    1
    76    65    64    2
    77    98   100   am
    78    98    97    1
    79   104   105    1
    80   100   106    1
    81     4     3    2
    82     9     8    1
    83     8     7    1
    84   105   106    1
    85    97    96    1
    86     3     2    1
    87     2     5    1
    88     2     1    1
    89     5     6    1
    90    76    74    1
    91     7     6    1
    92    75    74    1
    93    75    77    1
    94    74    71    1
    95    73    72    2
    96    84    82    1
    97    89    90    1
    98    89    86    1
    99    93    92    1
   100    93    94    1
   101    92    87   am
   102    71    72    1
   103    71    70    1
   104    90    91    1
   105    83    82    1
   106    94    95    2
   107    82    79    1
   108    86    87    1
   109    86    85    1
   110    87    88    2
   111    91    85    1
   112    79    78    1
   113    79    80    1
   114    80    81    2
