@<TRIPOS>MOLECULE
tmp/1dibA01.pdb
 180 170 0 0 0
SMALL
GASTEIGER

@<TRIPOS>ATOM
      1  N         -3.6320   61.8060   13.1400 N.3    50  LEU50      -0.1231
      2  CA        -2.6650   62.5790   13.9050 C.3    50  LEU50       0.1693
      3  C         -1.3940   61.7670   14.1400 C.2    50  LEU50       0.2592
      4  O         -0.2910   62.2540   13.9150 O.2    50  LEU50      -0.2718
      5  CB        -3.2790   62.9720   15.2560 C.3    50  LEU50       0.0284
      6  CG        -2.3320   63.2100   16.4400 C.3    50  LEU50       0.0019
      7  CD1       -1.5310   64.5030   16.2740 C.3    50  LEU50       0.0001
      8  CD2       -3.1400   63.2330   17.7200 C.3    50  LEU50       0.0001
      9  N         -1.5630   60.5360   14.6150 N.am   51  TYR51      -0.1976
     10  CA        -0.4490   59.6350   14.9080 C.3    51  TYR51       0.1639
     11  C          0.4110   59.3410   13.6890 C.2    51  TYR51       0.2290
     12  O          1.6370   59.2450   13.7910 O.2    51  TYR51      -0.2864
     13  CB        -0.9730   58.3270   15.5060 C.3    51  TYR51       0.0560
     14  CG        -1.5780   58.4970   16.8810 C.ar   51  TYR51      -0.0198
     15  CD1       -2.5020   57.5740   17.3790 C.ar   51  TYR51      -0.0009
     16  CD2       -1.2100   59.5730   17.6970 C.ar   51  TYR51      -0.0009
     17  CE1       -3.0420   57.7170   18.6590 C.ar   51  TYR51       0.0417
     18  CE2       -1.7450   59.7290   18.9740 C.ar   51  TYR51       0.0417
     19  CZ        -2.6560   58.8000   19.4490 C.ar   51  TYR51       0.1957
     20  OH        -3.1710   58.9610   20.7150 O.3    51  TYR51      -0.2866
     21  N          2.5920   62.4100   12.7340 N.3    54  VAL54      -0.1231
     22  CA         3.7560   62.4610   13.6220 C.3    54  VAL54       0.1692
     23  C          4.8420   61.4820   13.1410 C.2    54  VAL54       0.2591
     24  O          6.0280   61.7990   13.1590 O.2    54  VAL54      -0.2718
     25  CB         3.3510   62.1090   15.0720 C.3    54  VAL54       0.0266
     26  CG1        4.5780   61.9520   15.9560 C.3    54  VAL54       0.0020
     27  CG2        2.4490   63.1840   15.6340 C.3    54  VAL54       0.0020
     28  N          4.4320   60.2800   12.7500 N.am   55  LYS55      -0.1980
     29  CA         5.3710   59.2800   12.2370 C.3    55  LYS55       0.1596
     30  C          5.9580   59.7740   10.9120 C.2    55  LYS55       0.2287
     31  O          7.1480   59.6140   10.6570 O.2    55  LYS55      -0.2864
     32  CB         4.6690   57.9330   12.0170 C.3    55  LYS55       0.0298
     33  CG         4.1970   57.2660   13.2970 C.3    55  LYS55       0.0038
     34  CD         3.3820   56.0280   12.9970 C.3    55  LYS55       0.0206
     35  CE         2.7770   55.4550   14.2660 C.3    55  LYS55       0.1093
     36  NZ         1.8940   54.2850   14.0050 N.3    55  LYS55      -0.1314
     37  N          3.9040   49.1510    7.9200 N.3    97  LEU97      -0.1231
     38  CA         3.0290   48.8110    9.0310 C.3    97  LEU97       0.1693
     39  C          1.5670   49.0940    8.7560 C.2    97  LEU97       0.2592
     40  O          1.2260   49.8540    7.8560 O.2    97  LEU97      -0.2718
     41  CB         3.4660   49.5830   10.2700 C.3    97  LEU97       0.0284
     42  CG         3.3730   51.1090   10.2470 C.3    97  LEU97       0.0019
     43  CD1        2.1730   51.5410   11.0600 C.3    97  LEU97       0.0001
     44  CD2        4.6380   51.7070   10.8530 C.3    97  LEU97       0.0001
     45  N          0.7030   48.4350    9.5180 N.am   98  VAL98      -0.1966
     46  CA        -0.7280   48.6370    9.4020 C.3    98  VAL98       0.1727
     47  C         -1.1190   49.3780   10.6620 C.2    98  VAL98       0.2616
     48  O         -0.9110   48.8890   11.7720 O.2    98  VAL98      -0.2715
     49  CB        -1.5020   47.3140    9.3250 C.3    98  VAL98       0.0290
     50  CG1       -2.9880   47.5910    9.2590 C.3    98  VAL98       0.0023
     51  CG2       -1.0770   46.5270    8.1010 C.3    98  VAL98       0.0023
     52  N         -1.5580   50.6150   10.4900 N.am   99  GLN99      -0.1963
     53  CA        -1.9790   51.4240   11.6220 C.3    99  GLN99       0.1733
     54  C         -3.2140   50.8100   12.2920 C.2    99  GLN99       0.2616
     55  O         -4.1770   50.4610   11.6230 O.2    99  GLN99      -0.2715
     56  CB        -2.3090   52.8430   11.1590 C.3    99  GLN99       0.0408
     57  CG        -2.5520   53.8120   12.2990 C.3    99  GLN99       0.0908
     58  CD        -1.2790   54.1430   13.0630 C.2    99  GLN99       0.2608
     59  OE1       -0.1790   54.1080   12.5030 O.2    99  GLN99      -0.2717
     60  NE2       -1.4220   54.4830   14.3420 N.am   99  GLN99      -0.0878
     61  N         -3.1970   50.6960   13.6130 N.am  100  LEU100     -0.1977
     62  CA        -4.3360   50.1290   14.3240 C.3   100  LEU100      0.1596
     63  C         -4.9920   51.1470   15.2390 C.2   100  LEU100      0.2287
     64  O         -4.3540   52.1010   15.6840 O.2   100  LEU100     -0.2864
     65  CB        -3.9180   48.8940   15.1170 C.3   100  LEU100      0.0297
     66  CG        -3.4090   47.7280   14.2670 C.3   100  LEU100      0.0022
     67  CD1       -2.8470   46.6560   15.1830 C.3   100  LEU100      0.0001
     68  CD2       -4.5180   47.1860   13.3660 C.3   100  LEU100      0.0001
     69  N          7.0990   46.9210   12.9660 N.3   124  ASP124     -0.1239
     70  CA         6.1970   47.0730   14.0760 C.3   124  ASP124      0.1674
     71  C          6.1940   45.8440   15.0030 C.2   124  ASP124      0.2266
     72  O          5.5850   45.8700   16.0700 O.2   124  ASP124     -0.2867
     73  CB         4.8160   47.3360   13.5260 C.3   124  ASP124      0.1410
     74  CG         4.1290   48.4330   14.2480 C.2   124  ASP124      0.3668
     75  OD1        4.4770   49.6220   14.1030 O.co2 124  ASP124     -0.2456
     76  OD2        3.2620   48.0790   15.0500 O.co2 124  ASP124     -0.2456
     77  N          4.6090   43.0120   15.0700 N.3   126  LEU126     -0.1245
     78  CA         3.3430   42.4410   15.4890 C.3   126  LEU126      0.1561
     79  C          3.0300   41.0890   14.9010 C.2   126  LEU126      0.2260
     80  O          2.0330   40.4800   15.2800 O.2   126  LEU126     -0.2867
     81  CB         2.1990   43.4170   15.2330 C.3   126  LEU126      0.0270
     82  CG         2.2880   44.6550   16.1290 C.3   126  LEU126      0.0019
     83  CD1        1.2040   45.6580   15.7930 C.3   126  LEU126      0.0001
     84  CD2        2.1980   44.2340   17.5770 C.3   126  LEU126      0.0001
     85  N          7.3510   48.6930   18.8940 N.3   146  CYS146     -0.1221
     86  CA         7.8670   50.0320   19.1670 C.3   146  CYS146      0.1808
     87  C          7.6910   50.6290   20.5590 C.2   146  CYS146      0.2601
     88  O          8.6350   51.2150   21.0960 O.2   146  CYS146     -0.2717
     89  CB         7.3650   50.9780   18.0840 C.3   146  CYS146      0.0970
     90  SG         7.8210   50.3120   16.4520 S.3   146  CYS146     -0.0800
     91  N          6.4910   50.4950   21.1200 N.am  147  THR147     -0.1953
     92  CA         6.1840   51.0030   22.4620 C.3   147  THR147      0.1897
     93  C          7.0080   50.3310   23.5640 C.2   147  THR147      0.2313
     94  O          7.5200   51.0270   24.4470 O.2   147  THR147     -0.2863
     95  CB         4.6960   50.9030   22.7770 C.3   147  THR147      0.1794
     96  OG1        3.9660   51.5040   21.7020 O.3   147  THR147     -0.2208
     97  CG2        4.3830   51.6460   24.0690 C.3   147  THR147      0.0378
     98  N          0.1660   44.6890   21.6400 N.3   175  ILE175     -0.1245
     99  CA         0.8980   45.9100   21.2810 C.3   175  ILE175      0.1561
    100  C          1.8780   46.3930   22.3500 C.2   175  ILE175      0.2260
    101  O          2.9520   46.8780   22.0170 O.2   175  ILE175     -0.2867
    102  CB        -0.0620   47.1030   20.9600 C.3   175  ILE175      0.0252
    103  CG1       -1.2570   46.6400   20.1280 C.3   175  ILE175      0.0019
    104  CG2        0.6900   48.1920   20.1680 C.3   175  ILE175      0.0019
    105  CD1       -0.8850   46.2290   18.7260 C.3   175  ILE175      0.0001
    106  N         -2.5120   57.0200   27.4730 N.3   237  ILE237     -0.1245
    107  CA        -2.9410   58.2070   26.7220 C.3   237  ILE237      0.1561
    108  C         -4.4700   58.2580   26.8900 C.2   237  ILE237      0.2260
    109  O         -5.2150   57.6480   26.1190 O.2   237  ILE237     -0.2867
    110  CB        -2.5850   58.1310   25.2100 C.3   237  ILE237      0.0252
    111  CG1       -1.0670   58.0320   25.0130 C.3   237  ILE237      0.0019
    112  CG2       -3.0910   59.3860   24.4940 C.3   237  ILE237      0.0019
    113  CD1       -0.3030   59.2670   25.4680 C.3   237  ILE237      0.0001
    114  N         -8.0750   60.7010   27.7980 N.3   239  TYR239     -0.1241
    115  CA        -8.6820   62.0220   27.7290 C.3   239  TYR239      0.1605
    116  C         -9.7950   62.1390   28.7690 C.2   239  TYR239      0.2264
    117  O         -9.7390   62.9870   29.6660 O.2   239  TYR239     -0.2867
    118  CB        -9.2180   62.2720   26.3270 C.3   239  TYR239      0.0534
    119  CG        -8.1570   62.0810   25.2460 C.ar  239  TYR239     -0.0201
    120  CD1       -7.1340   62.9980   25.1130 C.ar  239  TYR239     -0.0009
    121  CD2       -8.2120   60.9750   24.4190 C.ar  239  TYR239     -0.0009
    122  CE1       -6.1570   62.8080   24.1550 C.ar  239  TYR239      0.0417
    123  CE2       -7.2290   60.7820   23.4530 C.ar  239  TYR239      0.0417
    124  CZ        -6.2130   61.7060   23.3330 C.ar  239  TYR239      0.1957
    125  OH        -5.2220   61.5350   22.3780 O.3   239  TYR239     -0.2866
    126  N         -5.2060   65.2760   28.6490 N.3   241  VAL241     -0.1245
    127  CA        -4.5700   63.9720   28.4610 C.3   241  VAL241      0.1561
    128  C         -3.8710   63.5580   29.7710 C.2   241  VAL241      0.2260
    129  O         -3.1440   64.3550   30.3840 O.2   241  VAL241     -0.2867
    130  CB        -3.5290   63.9950   27.2980 C.3   241  VAL241      0.0252
    131  CG1       -3.0360   62.5790   26.9760 C.3   241  VAL241      0.0019
    132  CG2       -4.1370   64.6340   26.0630 C.3   241  VAL241      0.0019
    133  N          1.6480   64.1000   28.5450 N.3   261  PRO261     -0.2102
    134  CA         2.4230   63.5490   27.4320 C.3   261  PRO261      0.1504
    135  C          3.9100   63.8680   27.5360 C.2   261  PRO261      0.2576
    136  O          4.3880   64.3220   28.5790 O.2   261  PRO261     -0.2718
    137  CB         1.7980   64.2420   26.2310 C.3   261  PRO261      0.0282
    138  CG         1.5610   65.5860   26.7560 C.3   261  PRO261      0.0208
    139  CD         0.9310   65.3080   28.1100 C.3   261  PRO261      0.0893
    140  N          4.6290   63.6410   26.4380 N.am  262  GLY262     -0.1943
    141  CA         6.0570   63.8990   26.4030 C.3   262  GLY262      0.2014
    142  C          6.8720   62.7940   27.0510 C.2   262  GLY262      0.2639
    143  O          8.0400   63.0050   27.3960 O.2   262  GLY262     -0.2714
    144  N          6.2640   61.6150   27.1970 N.am  263  GLY263     -0.1954
    145  CA         6.9410   60.4890   27.8120 C.3   263  GLY263      0.1869
    146  C          7.1850   59.3120   26.8850 C.2   263  GLY263      0.2309
    147  O          8.1160   59.3330   26.0810 O.2   263  GLY263     -0.2863
    148  N          5.2270   58.2420   24.4700 N.3   265  GLY265     -0.1210
    149  CA         4.7930   58.5350   23.1170 C.3   265  GLY265      0.1940
    150  C          5.8960   58.8920   22.1460 C.2   265  GLY265      0.2453
    151  O          6.0450   58.2240   21.1200 O.2   265  GLY265     -0.2732
    152  N          6.6880   59.9420   22.4300 N.am  266  PRO266     -0.2728
    153  CA         7.7720   60.3310   21.5230 C.3   266  PRO266      0.1401
    154  C          8.7290   59.1680   21.2570 C.2   266  PRO266      0.2269
    155  O          9.2100   58.9720   20.1380 O.2   266  PRO266     -0.2865
    156  CB         8.4600   61.4530   22.3000 C.3   266  PRO266      0.0296
    157  CG         7.3330   62.0660   23.0900 C.3   266  PRO266      0.0237
    158  CD         6.6130   60.8540   23.5900 C.3   266  PRO266      0.0939
    159  N          8.0480   55.9930   21.2130 N.3   268  THR268     -0.1203
    160  CA         7.4140   55.0110   20.3290 C.3   268  THR268      0.1994
    161  C          7.7280   55.3470   18.8710 C.2   268  THR268      0.2617
    162  O          8.0980   54.4740   18.0910 O.2   268  THR268     -0.2717
    163  CB         5.8710   54.9780   20.5310 C.3   268  THR268      0.1784
    164  OG1        5.5550   54.4550   21.8310 O.3   268  THR268     -0.2211
    165  CG2        5.2020   54.1200   19.4660 C.3   268  THR268      0.0376
    166  N          7.5750   56.6170   18.5060 N.am  269  VAL269     -0.1979
    167  CA         7.8690   57.0670   17.1510 C.3   269  VAL269      0.1595
    168  C          9.3620   56.9310   16.8720 C.2   269  VAL269      0.2287
    169  O          9.7510   56.4030   15.8360 O.2   269  VAL269     -0.2864
    170  CB         7.4370   58.5030   16.9420 C.3   269  VAL269      0.0276
    171  CG1        7.7600   58.9400   15.5220 C.3   269  VAL269      0.0022
    172  CG2        5.9540   58.6250   17.2230 C.3   269  VAL269      0.0022
    173  N         10.2070   53.3220   16.2180 N.3   272  LEU272     -0.1245
    174  CA         9.6760   52.8800   14.9350 C.3   272  LEU272      0.1561
    175  C         10.6580   53.3040   13.8640 C.2   272  LEU272      0.2260
    176  O         10.9480   52.5480   12.9410 O.2   272  LEU272     -0.2867
    177  CB         8.3230   53.5200   14.6390 C.3   272  LEU272      0.0270
    178  CG         7.9360   53.5390   13.1510 C.3   272  LEU272      0.0019
    179  CD1        7.7640   52.1240   12.6220 C.3   272  LEU272      0.0001
    180  CD2        6.6770   54.3510   12.9570 C.3   272  LEU272      0.0001
@<TRIPOS>BOND
     1    40    39    2
     2    37    38    1
     3    51    49    1
     4    39    38    1
     5    39    45   am
     6    38    41    1
     7    50    49    1
     8    49    46    1
     9    46    45    1
    10    46    47    1
    11    42    41    1
    12    42    44    1
    13    42    43    1
    14    52    47   am
    15    52    53    1
    16    31    30    2
    17    47    48    2
    18    30    29    1
    19    56    53    1
    20    56    57    1
    21    53    54    1
    22    55    54    2
    23    32    29    1
    24    32    33    1
    25    29    28    1
    26    54    61   am
    27    57    58    1
    28    59    58    2
    29   179   178    1
    30    21    22    1
    31    28    23   am
    32   176   175    2
    33   180   178    1
    34    69    70    1
    35    34    33    1
    36    34    35    1
    37    58    60   am
    38     1     2    1
    39    23    24    2
    40    23    22    1
    41   178   177    1
    42    68    66    1
    43    73    70    1
    44    73    74    1
    45    61    62    1
    46    22    25    1
    47    11    12    2
    48    11    10    1
    49   175   174    1
    50     2     3    1
    51     2     5    1
    52     4     3    2
    53    36    35    1
    54    70    71    1
    55    75    74   ar
    56     3     9   am
    57    74    76   ar
    58    66    65    1
    59    66    67    1
    60    62    65    1
    61    62    63    1
    62     9    10    1
    63   177   174    1
    64    79    80    2
    65    79    78    1
    66    10    13    1
    67   174   173    1
    68    71    72    2
    69    77    78    1
    70    25    27    1
    71    25    26    1
    72    81    78    1
    73    81    82    1
    74    63    64    2
    75     5     6    1
    76    13    14    1
    77   171   170    1
    78    83    82    1
    79   169   168    2
    80    82    84    1
    81     7     6    1
    82     6     8    1
    83    90    89    1
    84   168   167    1
    85    14    15   ar
    86    14    16   ar
    87   170   167    1
    88   170   172    1
    89   167   166    1
    90    15    17   ar
    91    16    18   ar
    92    89    86    1
    93   162   161    2
    94   166   161   am
    95    17    19   ar
    96   105   103    1
    97   161   160    1
    98    85    86    1
    99    18    19   ar
   100    86    87    1
   101    19    20    1
   102   165   163    1
   103   103   102    1
   104   155   154    2
   105   104   102    1
   106   160   163    1
   107   160   159    1
   108   163   164    1
   109    87    88    2
   110    87    91   am
   111   102    99    1
   112   151   150    2
   113    91    92    1
   114   154   153    1
   115    99    98    1
   116    99   100    1
   117   153   156    1
   118   153   152    1
   119    96    95    1
   120   101   100    2
   121   150   152   am
   122   150   149    1
   123   156   157    1
   124   125   124    1
   125   152   158    1
   126    92    95    1
   127    92    93    1
   128    95    97    1
   129   157   158    1
   130   149   148    1
   131   124   123   ar
   132   124   122   ar
   133   123   121   ar
   134    93    94    2
   135   122   120   ar
   136   121   119   ar
   137   112   110    1
   138   111   110    1
   139   111   113    1
   140   120   119   ar
   141   110   107    1
   142   119   118    1
   143   132   130    1
   144   147   146    2
   145   109   108    2
   146   137   138    1
   147   137   134    1
   148   118   115    1
   149   141   140    1
   150   141   142    1
   151   140   135   am
   152   107   108    1
   153   107   106    1
   154   138   139    1
   155   146   145    1
   156   131   130    1
   157   142   144   am
   158   142   143    2
   159   144   145    1
   160   130   127    1
   161   134   135    1
   162   134   133    1
   163   135   136    2
   164   115   114    1
   165   115   116    1
   166   139   133    1
   167   127   126    1
   168   127   128    1
   169   116   117    2
   170   128   129    2
