@<TRIPOS>MOLECULE
tmp/1dibB00.pdb
 174 164 0 0 0
SMALL
GASTEIGER

@<TRIPOS>ATOM
      1  N          3.7180   19.5980   24.6640 N.3   146  CYS146     -0.1221
      2  CA         3.2440   18.5690   25.5810 C.3   146  CYS146      0.1808
      3  C          3.4810   18.7090   27.0950 C.2   146  CYS146      0.2601
      4  O          2.5590   18.4560   27.8680 O.2   146  CYS146     -0.2717
      5  CB         3.6590   17.1840   25.0890 C.3   146  CYS146      0.0970
      6  SG         5.4200   16.9930   24.8440 S.3   146  CYS146     -0.0800
      7  N          4.6740   19.1180   27.5320 N.am  147  THR147     -0.1953
      8  CA         4.9130   19.2580   28.9720 C.3   147  THR147      0.1897
      9  C          4.0240   20.3260   29.6280 C.2   147  THR147      0.2313
     10  O          3.2330   19.9870   30.5090 O.2   147  THR147     -0.2863
     11  CB         6.4010   19.4550   29.3210 C.3   147  THR147      0.1794
     12  OG1        7.1690   18.4040   28.7240 O.3   147  THR147     -0.2208
     13  CG2        6.6080   19.3650   30.8100 C.3   147  THR147      0.0378
     14  N          8.9180   28.8030   37.7710 N.3   170  VAL170     -0.1231
     15  CA        10.3770   28.8140   37.9650 C.3   170  VAL170      0.1692
     16  C         10.9500   28.1380   36.7280 C.2   170  VAL170      0.2593
     17  O         10.7770   26.9410   36.5280 O.2   170  VAL170     -0.2718
     18  CB        10.8160   28.0470   39.2500 C.3   170  VAL170      0.0266
     19  CG1       12.2520   28.3810   39.5820 C.3   170  VAL170      0.0020
     20  CG2        9.9210   28.4040   40.4270 C.3   170  VAL170      0.0020
     21  N         11.6000   28.9240   35.8830 N.am  171  GLY171     -0.1942
     22  CA        12.1280   28.3980   34.6360 C.3   171  GLY171      0.2014
     23  C         11.4530   29.1190   33.4750 C.2   171  GLY171      0.2639
     24  O         10.2460   29.3880   33.5150 O.2   171  GLY171     -0.2714
     25  N         12.2240   29.4660   32.4490 N.am  172  ARG172     -0.1963
     26  CA        11.6730   30.1790   31.2910 C.3   172  ARG172      0.1729
     27  C         12.1520   29.6140   29.9400 C.2   172  ARG172      0.2616
     28  O         12.4440   30.3740   29.0150 O.2   172  ARG172     -0.2715
     29  CB        12.0480   31.6570   31.3950 C.3   172  ARG172      0.0348
     30  CG        13.5310   31.8370   31.6690 C.3   172  ARG172      0.0492
     31  CD        14.0170   33.2580   31.5480 C.3   172  ARG172      0.2205
     32  NE        15.4330   33.3340   31.8900 N.pl3 172  ARG172     -0.0865
     33  CZ        16.1530   34.4520   31.9230 C.cat 172  ARG172      0.5346
     34  NH1       15.6070   35.6220   31.6190 N.pl3 172  ARG172      0.1354
     35  NH2       17.4140   34.4040   32.3250 N.pl3 172  ARG172      0.1354
     36  N         12.1800   28.2870   29.8200 N.am  173  SER173     -0.1950
     37  CA        12.6390   27.6190   28.6040 C.3   173  SER173      0.1924
     38  C         11.5540   27.5640   27.5480 C.2   173  SER173      0.2314
     39  O         10.3820   27.6980   27.8800 O.2   173  SER173     -0.2863
     40  CB        13.1090   26.1870   28.9160 C.3   173  SER173      0.2116
     41  OG        12.0270   25.3040   29.1760 O.3   173  SER173     -0.2180
     42  N         10.7110   24.8970   25.8220 N.3   175  ILE175     -0.1231
     43  CA         9.9910   23.6350   25.9520 C.3   175  ILE175      0.1692
     44  C          8.9390   23.6480   27.0640 C.2   175  ILE175      0.2591
     45  O          7.8360   23.1420   26.8710 O.2   175  ILE175     -0.2718
     46  CB        10.9760   22.4410   26.2160 C.3   175  ILE175      0.0266
     47  CG1       12.1250   22.4360   25.2000 C.3   175  ILE175      0.0019
     48  CG2       10.2500   21.1030   26.1580 C.3   175  ILE175      0.0020
     49  CD1       11.6910   22.3640   23.7450 C.3   175  ILE175      0.0001
     50  N          9.2680   24.2330   28.2160 N.am  176  VAL176     -0.1980
     51  CA         8.3370   24.2470   29.3400 C.3   176  VAL176      0.1595
     52  C          8.0500   25.6310   29.9050 C.2   176  VAL176      0.2287
     53  O          6.9740   26.1650   29.7130 O.2   176  VAL176     -0.2864
     54  CB         8.8510   23.3720   30.5040 C.3   176  VAL176      0.0276
     55  CG1        7.7520   23.1850   31.5350 C.3   176  VAL176      0.0022
     56  CG2        9.3630   22.0390   29.9950 C.3   176  VAL176      0.0022
     57  N         13.7420   32.8430   37.0960 N.3   195  HIS195     -0.1226
     58  CA        14.8300   32.1690   36.3930 C.3   195  HIS195      0.1752
     59  C         16.0970   32.1800   37.2470 C.2   195  HIS195      0.2597
     60  O         16.0400   32.4960   38.4350 O.2   195  HIS195     -0.2718
     61  CB        15.0970   32.8580   35.0640 C.3   195  HIS195      0.0759
     62  CG        15.0690   34.3490   35.1500 C.ar  195  HIS195      0.0818
     63  ND1       16.1450   35.0890   35.5780 N.ar  195  HIS195     -0.2268
     64  CD2       14.0780   35.2340   34.8890 C.ar  195  HIS195      0.1154
     65  CE1       15.8210   36.3720   35.5810 C.ar  195  HIS195      0.1986
     66  NE2       14.5730   36.4860   35.1660 N.ar  195  HIS195     -0.2212
     67  N         17.2360   31.8680   36.6300 N.am  196  SER196     -0.1938
     68  CA        18.5180   31.8190   37.3340 C.3   196  SER196      0.2055
     69  C         19.0180   33.1600   37.8780 C.2   196  SER196      0.2642
     70  O         19.8780   33.1800   38.7660 O.2   196  SER196     -0.2714
     71  CB        19.5970   31.2070   36.4360 C.3   196  SER196      0.2130
     72  OG        19.8440   32.0320   35.3070 O.3   196  SER196     -0.2179
     73  N         18.4940   34.2680   37.3460 N.am  197  LYS197     -0.1977
     74  CA        18.9010   35.6130   37.7780 C.3   197  LYS197      0.1596
     75  C         17.9580   36.2310   38.8110 C.2   197  LYS197      0.2287
     76  O         18.1370   37.3730   39.2290 O.2   197  LYS197     -0.2864
     77  CB        19.0030   36.5540   36.5760 C.3   197  LYS197      0.0298
     78  CG        19.9850   36.1310   35.5100 C.3   197  LYS197      0.0038
     79  CD        21.3830   36.0390   36.0630 C.3   197  LYS197      0.0206
     80  CE        22.4240   36.1680   34.9540 C.3   197  LYS197      0.1093
     81  NZ        22.3920   35.0320   34.0130 N.3   197  LYS197     -0.1314
     82  N         14.6360   34.0400   45.4410 N.3   201  LEU201     -0.1245
     83  CA        13.7150   33.1070   44.7940 C.3   201  LEU201      0.1561
     84  C         12.7250   32.4630   45.7680 C.2   201  LEU201      0.2260
     85  O         11.5890   32.1750   45.4080 O.2   201  LEU201     -0.2867
     86  CB        14.4950   32.0180   44.0550 C.3   201  LEU201      0.0270
     87  CG        13.6370   31.0400   43.2410 C.3   201  LEU201      0.0019
     88  CD1       12.9340   31.7610   42.0970 C.3   201  LEU201      0.0001
     89  CD2       14.4770   29.9160   42.7000 C.3   201  LEU201      0.0001
     90  N         10.2460   24.1330   36.6420 N.3   214  ALA214     -0.1231
     91  CA        10.9130   23.4710   35.5250 C.3   214  ALA214      0.1694
     92  C         12.3220   24.0440   35.4600 C.2   214  ALA214      0.2593
     93  O         12.6200   24.8840   34.6050 O.2   214  ALA214     -0.2718
     94  CB        10.1740   23.7520   34.2300 C.3   214  ALA214      0.0304
     95  N         13.1970   23.5520   36.3370 N.am  215  THR215     -0.1939
     96  CA        14.5610   24.0590   36.4140 C.3   215  THR215      0.2028
     97  C         15.6830   23.0780   36.1180 C.2   215  THR215      0.2643
     98  O         16.7490   23.4860   35.6680 O.2   215  THR215     -0.2714
     99  CB        14.8400   24.6520   37.8070 C.3   215  THR215      0.1808
    100  OG1       14.8070   23.6030   38.7840 O.3   215  THR215     -0.2208
    101  CG2       13.8030   25.7120   38.1600 C.3   215  THR215      0.0379
    102  N         15.4640   21.8000   36.3920 N.am  216  GLY216     -0.1939
    103  CA        16.5160   20.8250   36.1740 C.3   216  GLY216      0.2014
    104  C         17.4670   20.8040   37.3690 C.2   216  GLY216      0.2638
    105  O         18.4920   20.1250   37.3400 O.2   216  GLY216     -0.2714
    106  N         17.1600   21.5920   38.3990 N.am  217  GLN217     -0.1977
    107  CA        17.9790   21.6360   39.6100 C.3   217  GLN217      0.1601
    108  C         17.2830   20.7550   40.6480 C.2   217  GLN217      0.2287
    109  O         16.3440   21.1960   41.3100 O.2   217  GLN217     -0.2864
    110  CB        18.1150   23.0710   40.1220 C.3   217  GLN217      0.0394
    111  CG        18.6950   24.0460   39.1090 C.3   217  GLN217      0.0908
    112  CD        19.9820   23.5480   38.4740 C.2   217  GLN217      0.2608
    113  OE1       21.0290   23.4860   39.1240 O.2   217  GLN217     -0.2717
    114  NE2       19.9070   23.1840   37.1930 N.am  217  GLN217     -0.0878
    115  N         15.7240   21.6930   44.4510 N.3   220  MET220     -0.1245
    116  CA        16.1100   23.0230   44.9140 C.3   220  MET220      0.1570
    117  C         15.0000   23.7350   45.6730 C.2   220  MET220      0.2261
    118  O         15.2470   24.3270   46.7270 O.2   220  MET220     -0.2867
    119  CB        16.5640   23.8930   43.7490 C.3   220  MET220      0.0387
    120  CG        16.9030   25.3070   44.1670 C.3   220  MET220      0.0595
    121  SD        17.0830   26.4610   42.7870 S.3   220  MET220     -0.1393
    122  CE        15.5770   26.2160   41.9290 C.3   220  MET220      0.0692
    123  N          7.9250   19.5800   37.1210 N.3   235  CYS235     -0.1221
    124  CA         8.3030   19.0400   35.8160 C.3   235  CYS235      0.1808
    125  C          9.6590   18.3760   35.8050 C.2   235  CYS235      0.2602
    126  O         10.0500   17.7750   34.8070 O.2   235  CYS235     -0.2717
    127  CB         8.3250   20.1490   34.7770 C.3   235  CYS235      0.0970
    128  SG         6.7410   20.8800   34.5160 S.3   235  CYS235     -0.0800
    129  N         10.3800   18.4940   36.9100 N.am  236  GLY236     -0.1942
    130  CA        11.7110   17.9230   36.9890 C.3   236  GLY236      0.2014
    131  C         11.9060   16.4180   36.9310 C.2   236  GLY236      0.2639
    132  O         11.1460   15.6390   37.5090 O.2   236  GLY236     -0.2714
    133  N         12.9430   16.0220   36.2000 N.am  237  ILE237     -0.1963
    134  CA        13.3220   14.6260   36.0560 C.3   237  ILE237      0.1727
    135  C         14.8310   14.5750   36.2330 C.2   237  ILE237      0.2616
    136  O         15.5890   14.7680   35.2740 O.2   237  ILE237     -0.2715
    137  CB        12.9460   14.0560   34.6800 C.3   237  ILE237      0.0290
    138  CG1       11.4300   14.1280   34.4840 C.3   237  ILE237      0.0022
    139  CG2       13.4070   12.6030   34.5850 C.3   237  ILE237      0.0023
    140  CD1       10.9270   13.4160   33.2540 C.3   237  ILE237      0.0001
    141  N         15.2320   14.3390   37.4840 N.am  238  ASN238     -0.1972
    142  CA        16.6280   14.2740   37.9160 C.3   238  ASN238      0.1688
    143  C         16.9510   12.8950   38.4690 C.2   238  ASN238      0.2292
    144  O         16.3170   12.4370   39.4230 O.2   238  ASN238     -0.2864
    145  CB        16.8830   15.3230   39.0100 C.3   238  ASN238      0.1181
    146  CG        16.5460   16.7250   38.5570 C.2   238  ASN238      0.2629
    147  OD1       17.1420   17.2290   37.6150 O.2   238  ASN238     -0.2716
    148  ND2       15.5460   17.3380   39.1830 N.am  238  ASN238     -0.0877
    149  N         12.1900   18.8190   40.9230 N.3   254  ASP254     -0.1239
    150  CA        12.8950   20.0620   41.1670 C.3   254  ASP254      0.1674
    151  C         12.4010   20.6530   42.4850 C.2   254  ASP254      0.2266
    152  O         12.8690   21.7030   42.9280 O.2   254  ASP254     -0.2867
    153  CB        12.6440   21.0370   40.0170 C.3   254  ASP254      0.1410
    154  CG        13.2280   20.5600   38.6900 C.2   254  ASP254      0.3668
    155  OD1       14.2130   19.7790   38.6890 O.co2 254  ASP254     -0.2456
    156  OD2       12.7030   20.9930   37.6390 O.co2 254  ASP254     -0.2456
    157  N          3.9950   14.8160   36.1650 N.3   274  VAL274     -0.1231
    158  CA         3.9230   15.4520   34.8440 C.3   274  VAL274      0.1692
    159  C          4.3920   14.5270   33.7290 C.2   274  VAL274      0.2592
    160  O          3.8310   14.5520   32.6440 O.2   274  VAL274     -0.2718
    161  CB         4.7510   16.7620   34.7840 C.3   274  VAL274      0.0266
    162  CG1        4.7610   17.3130   33.3770 C.3   274  VAL274      0.0020
    163  CG2        4.1690   17.7950   35.7300 C.3   274  VAL274      0.0020
    164  N          5.3940   13.6980   34.0140 N.am  275  GLY275     -0.1957
    165  CA         5.9300   12.7850   33.0240 C.3   275  GLY275      0.1869
    166  C          4.9570   11.9020   32.2590 C.2   275  GLY275      0.2309
    167  O          5.0200   11.8670   31.0280 O.2   275  GLY275     -0.2863
    168  N          2.7640   13.5670   29.3410 N.3   278  THR278     -0.1218
    169  CA         3.4390   13.9030   28.1010 C.3   278  THR278      0.1862
    170  C          2.9260   13.3030   26.8030 C.2   278  THR278      0.2287
    171  O          2.4700   14.0430   25.9370 O.2   278  THR278     -0.2866
    172  CB         4.9500   13.6850   28.2770 C.3   278  THR278      0.1770
    173  OG1        5.4780   14.7920   29.0120 O.3   278  THR278     -0.2211
    174  CG2        5.6780   13.5570   26.9560 C.3   278  THR278      0.0375
@<TRIPOS>BOND
     1    49    47    1
     2     1     2    1
     3     6     5    1
     4     5     2    1
     5    47    46    1
     6     2     3    1
     7    42    43    1
     8   171   170    2
     9    43    46    1
    10    43    44    1
    11    48    46    1
    12   170   169    1
    13    45    44    2
    14   174   172    1
    15    44    50   am
    16     3     7   am
    17     3     4    2
    18     7     8    1
    19    38    39    2
    20    38    37    1
    21   169   172    1
    22   169   168    1
    23    50    51    1
    24   172   173    1
    25    37    40    1
    26    37    36    1
    27    12    11    1
    28    40    41    1
    29     8    11    1
    30     8     9    1
    31    28    27    2
    32    11    13    1
    33    51    52    1
    34    51    54    1
    35     9    10    2
    36    53    52    2
    37    36    27   am
    38    27    26    1
    39    56    54    1
    40    54    55    1
    41   167   166    2
    42    26    29    1
    43    26    25    1
    44    29    30    1
    45    31    30    1
    46    31    32    1
    47    34    33    1
    48    32    33    2
    49    33    35    1
    50   166   165    1
    51    25    23   am
    52   160   159    2
    53   165   164    1
    54   140   138    1
    55   162   161    1
    56    23    24    2
    57    23    22    1
    58   159   164   am
    59   159   158    1
    60    81    80    1
    61    94    91    1
    62   138   137    1
    63   128   127    1
    64   139   137    1
    65    93    92    2
    66    22    21    1
    67   137   134    1
    68   127   124    1
    69   161   158    1
    70   161   163    1
    71   126   125    2
    72   158   157    1
    73    64    62   ar
    74    64    66   ar
    75    80    79    1
    76    61    62    1
    77    61    58    1
    78    62    63   ar
    79    66    65   ar
    80   136   135    2
    81    72    71    1
    82    92    91    1
    83    92    95   am
    84    78    79    1
    85    78    77    1
    86    91    90    1
    87    63    65   ar
    88    98    97    2
    89   125   124    1
    90   125   129   am
    91   124   123    1
    92    21    16   am
    93   134   133    1
    94   134   135    1
    95    97   102   am
    96    97    96    1
    97   103   102    1
    98   103   104    1
    99   133   131   am
   100   135   141   am
   101    95    96    1
   102    58    57    1
   103    58    59    1
   104    96    99    1
   105    71    68    1
   106    17    16    2
   107    77    74    1
   108    67    59   am
   109    67    68    1
   110    16    15    1
   111   129   130    1
   112   131   130    1
   113   131   132    2
   114   114   112   am
   115    59    60    2
   116    68    69    1
   117   105   104    2
   118    73    74    1
   119    73    69   am
   120   104   106   am
   121   141   142    1
   122   147   146    2
   123   156   154   ar
   124    14    15    1
   125    74    75    1
   126    99   101    1
   127    99   100    1
   128    69    70    2
   129   142   143    1
   130   142   145    1
   131    15    18    1
   132   106   107    1
   133   143   144    2
   134   112   111    1
   135   112   113    2
   136   146   145    1
   137   146   148   am
   138   155   154   ar
   139   154   153    1
   140    75    76    2
   141   111   110    1
   142    18    19    1
   143    18    20    1
   144   107   110    1
   145   107   108    1
   146   153   150    1
   147   108   109    2
   148   149   150    1
   149   150   151    1
   150   122   121    1
   151    88    87    1
   152   151   152    2
   153    89    87    1
   154   121   120    1
   155    87    86    1
   156   119   120    1
   157   119   116    1
   158    86    83    1
   159   115   116    1
   160    83    82    1
   161    83    84    1
   162   116   117    1
   163    85    84    2
   164   117   118    2
