@<TRIPOS>MOLECULE
tmp/1dicA00.pdb
 98 94 0 0 0
SMALL
GASTEIGER

@<TRIPOS>ATOM
      1  N          8.6460   23.1220   10.7340 N.3    25  LEU25      -0.1231
      2  CA         9.2960   23.4660   11.9970 C.3    25  LEU25       0.1693
      3  C          9.7430   22.2090   12.7610 C.2    25  LEU25       0.2592
      4  O         10.9090   22.0620   13.1400 O.2    25  LEU25      -0.2718
      5  CB         8.3290   24.3030   12.8630 C.3    25  LEU25       0.0284
      6  CG         8.8070   24.7390   14.2520 C.3    25  LEU25       0.0019
      7  CD1        9.9530   25.7400   14.1210 C.3    25  LEU25       0.0001
      8  CD2        7.6620   25.3550   15.0210 C.3    25  LEU25       0.0001
      9  N          8.8170   21.2820   12.9500 N.am   26  CYS26      -0.1970
     10  CA         9.1130   20.0630   13.6860 C.3    26  CYS26       0.1712
     11  C          8.3440   18.8940   13.1100 C.2    26  CYS26       0.2296
     12  O          7.3950   19.0820   12.3570 O.2    26  CYS26      -0.2864
     13  CB         8.6900   20.2340   15.1560 C.3    26  CYS26       0.0983
     14  SG         9.8110   21.2330   16.1750 S.3    26  CYS26      -0.0798
     15  N          9.0080   22.9280   20.6200 N.3    42  CYS42      -0.1235
     16  CA         8.7430   23.3320   19.2310 C.3    42  CYS42       0.1677
     17  C          7.7420   24.4880   19.2420 C.2    42  CYS42       0.2270
     18  O          7.7600   25.3660   18.3780 O.2    42  CYS42      -0.2867
     19  CB         8.1210   22.1680   18.4490 C.3    42  CYS42       0.0956
     20  SG         9.2420   20.7810   18.0770 S.3    42  CYS42      -0.0801
     21  N         19.1860   11.6500   14.3210 N.3   178  SER178     -0.1202
     22  CA        18.0840   12.5440   14.0520 C.3   178  SER178      0.2020
     23  C         18.7820   13.8660   14.3740 C.2   178  SER178      0.2619
     24  O         19.7470   13.8940   15.1510 O.2   178  SER178     -0.2717
     25  CB        16.8810   12.2620   14.9740 C.3   178  SER178      0.2103
     26  OG        17.2730   12.1710   16.3350 O.3   178  SER178     -0.2182
     27  N         18.3310   14.9600   13.7750 N.am  179  CYS179     -0.1955
     28  CA        18.9880   16.2280   13.9920 C.3   179  CYS179      0.1843
     29  C         17.9780   17.3740   13.9660 C.2   179  CYS179      0.2625
     30  O         16.7680   17.1450   14.0520 O.2   179  CYS179     -0.2714
     31  CB        20.0750   16.3930   12.9160 C.3   179  CYS179      0.0997
     32  SG        21.3700   17.5840   13.3500 S.3   179  CYS179     -0.0797
     33  N         18.4760   18.6030   13.8880 N.am  180  LYS180     -0.1963
     34  CA        17.6250   19.7910   13.8520 C.3   180  LYS180      0.1728
     35  C         16.5120   19.7020   12.8130 C.2   180  LYS180      0.2616
     36  O         16.7730   19.3980   11.6560 O.2   180  LYS180     -0.2715
     37  CB        18.4800   21.0350   13.6200 C.3   180  LYS180      0.0311
     38  CG        17.6910   22.3180   13.5040 C.3   180  LYS180      0.0038
     39  CD        18.5740   23.5100   13.8310 C.3   180  LYS180      0.0206
     40  CE        17.7940   24.8140   13.8150 C.3   180  LYS180      0.1093
     41  NZ        18.4880   25.8380   14.6630 N.3   180  LYS180     -0.1314
     42  N         15.2730   19.9320   13.2490 N.am  181  GLY181     -0.1955
     43  CA        14.1200   19.8660   12.3680 C.3   181  GLY181      0.1869
     44  C         13.4470   18.5100   12.4190 C.2   181  GLY181      0.2309
     45  O         12.3970   18.3300   11.8140 O.2   181  GLY181     -0.2863
     46  N         13.0240   17.0150   15.4530 N.3   183  SER183     -0.1217
     47  CA        12.4520   17.0030   16.8030 C.3   183  SER183      0.1889
     48  C         10.9280   16.9390   16.7800 C.2   183  SER183      0.2288
     49  O         10.3000   17.5560   15.9190 O.2   183  SER183     -0.2866
     50  CB        12.9420   18.2260   17.5540 C.3   183  SER183      0.2089
     51  OG        14.3590   18.2280   17.4960 O.3   183  SER183     -0.2183
     52  N         11.2550   12.2100   19.2300 N.3   197  VAL197     -0.1231
     53  CA        12.5550   12.8860   19.2070 C.3   197  VAL197      0.1692
     54  C         12.5170   14.1300   20.1170 C.2   197  VAL197      0.2593
     55  O         11.7740   15.0890   19.8670 O.2   197  VAL197     -0.2718
     56  CB        12.9440   13.2980   17.7320 C.3   197  VAL197      0.0266
     57  CG1       14.2970   13.9810   17.7010 C.3   197  VAL197      0.0020
     58  CG2       12.9570   12.0510   16.8140 C.3   197  VAL197      0.0020
     59  N         13.3420   14.1150   21.1540 N.am  198  THR198     -0.1939
     60  CA        13.4030   15.2080   22.1120 C.3   198  THR198      0.2028
     61  C         13.9880   16.4750   21.5040 C.2   198  THR198      0.2643
     62  O         14.8780   16.4060   20.6480 O.2   198  THR198     -0.2714
     63  CB        14.2590   14.7950   23.3320 C.3   198  THR198      0.1808
     64  OG1       13.8130   13.5200   23.8160 O.3   198  THR198     -0.2208
     65  CG2       14.1330   15.7920   24.4510 C.3   198  THR198      0.0379
     66  N         13.4300   17.6190   21.8970 N.am  199  SER199     -0.1935
     67  CA        13.9050   18.9370   21.4610 C.3   199  SER199      0.2055
     68  C         15.1780   19.2940   22.2410 C.2   199  SER199      0.2644
     69  O         15.5370   18.6280   23.2220 O.2   199  SER199     -0.2714
     70  CB        12.8720   20.0290   21.7650 C.3   199  SER199      0.2130
     71  OG        11.6260   19.7560   21.1770 O.3   199  SER199     -0.2179
     72  N         15.8370   20.3730   21.8400 N.am  200  GLY200     -0.1939
     73  CA        17.0370   20.7710   22.5440 C.3   200  GLY200      0.2014
     74  C         18.2420   20.7450   21.6430 C.2   200  GLY200      0.2640
     75  O         18.4240   19.8200   20.8440 O.2   200  GLY200     -0.2714
     76  N         19.0370   21.8000   21.7440 N.am  201  SER201     -0.1935
     77  CA        20.2570   21.9480   20.9580 C.3   201  SER201      0.2055
     78  C         21.2690   20.8690   21.3730 C.2   201  SER201      0.2642
     79  O         21.5350   20.6790   22.5650 O.2   201  SER201     -0.2714
     80  CB        20.8440   23.3450   21.1890 C.3   201  SER201      0.2130
     81  OG        21.9380   23.5990   20.3230 O.3   201  SER201     -0.2179
     82  N         21.8070   20.1460   20.3930 N.am  202  ARG202     -0.1977
     83  CA        22.7860   19.0830   20.6500 C.3   202  ARG202      0.1597
     84  C         23.4640   18.7230   19.3320 C.2   202  ARG202      0.2287
     85  O         22.9000   18.9460   18.2490 O.2   202  ARG202     -0.2864
     86  CB        22.0930   17.8230   21.1910 C.3   202  ARG202      0.0334
     87  CG        20.9640   17.3480   20.2790 C.3   202  ARG202      0.0492
     88  CD        20.4570   15.9610   20.5970 C.3   202  ARG202      0.2205
     89  NE        21.3930   14.9250   20.1820 N.pl3 202  ARG202     -0.0865
     90  CZ        21.1870   14.0830   19.1740 C.cat 202  ARG202      0.5346
     91  NH1       20.0740   14.1360   18.4540 N.pl3 202  ARG202      0.1354
     92  NH2       22.1010   13.1760   18.9010 N.pl3 202  ARG202      0.1354
     93  N         24.7520   16.3470   16.3880 N.3   204  CYS204     -0.1235
     94  CA        24.1740   15.1970   15.7200 C.3   204  CYS204      0.1677
     95  C         25.2800   14.3650   15.0820 C.2   204  CYS204      0.2270
     96  O         26.2850   14.9160   14.6270 O.2   204  CYS204     -0.2867
     97  CB        23.2350   15.6630   14.6160 C.3   204  CYS204      0.0956
     98  SG        22.0500   16.9330   15.1480 S.3   204  CYS204     -0.0801
@<TRIPOS>BOND
     1     1     2    1
     2    36    35    2
     3    45    44    2
     4     2     3    1
     5     2     5    1
     6    12    11    2
     7    43    44    1
     8    43    42    1
     9     3     9   am
    10     3     4    2
    11    35    42   am
    12    35    34    1
    13     5     6    1
    14    31    32    1
    15    31    28    1
    16     9    10    1
    17    11    10    1
    18    32    98    1
    19    38    37    1
    20    38    39    1
    21    37    34    1
    22    10    13    1
    23    27    28    1
    24    27    23   am
    25    40    39    1
    26    40    41    1
    27    34    33    1
    28    33    29   am
    29    29    28    1
    30    29    30    2
    31    22    21    1
    32    22    23    1
    33    22    25    1
    34     7     6    1
    35     6     8    1
    36    23    24    2
    37    97    98    1
    38    97    94    1
    39    96    95    2
    40    25    26    1
    41    95    94    1
    42    13    14    1
    43    46    47    1
    44    94    93    1
    45    49    48    2
    46    14    20    1
    47    48    47    1
    48    47    50    1
    49    58    56    1
    50    51    50    1
    51    57    56    1
    52    56    53    1
    53    20    19    1
    54    85    84    2
    55    18    17    2
    56    19    16    1
    57    91    90    1
    58    92    90    1
    59    90    89    2
    60    53    52    1
    61    53    54    1
    62    16    17    1
    63    16    15    1
    64    84    83    1
    65    55    54    2
    66    54    59   am
    67    89    88    1
    68    87    88    1
    69    87    86    1
    70    81    80    1
    71    82    83    1
    72    82    78   am
    73    62    61    2
    74    83    86    1
    75    75    74    2
    76    77    80    1
    77    77    78    1
    78    77    76    1
    79    59    60    1
    80    71    70    1
    81    78    79    2
    82    67    70    1
    83    67    66    1
    84    67    68    1
    85    61    66   am
    86    61    60    1
    87    74    76   am
    88    74    73    1
    89    72    68   am
    90    72    73    1
    91    60    63    1
    92    68    69    2
    93    63    64    1
    94    63    65    1
