@<TRIPOS>MOLECULE
tmp/1didB00.pdb
 156 148 0 0 0
SMALL
GASTEIGER

@<TRIPOS>ATOM
      1  N         51.0800   35.2520    5.0240 N.3    14  TRP14      -0.1241
      2  CA        51.1310   36.3920    4.1930 C.3    14  TRP14       0.1605
      3  C         51.0420   37.7100    4.9670 C.2    14  TRP14       0.2264
      4  O         51.3600   38.7560    4.4000 O.2    14  TRP14      -0.2867
      5  CB        50.0280   36.2810    3.1290 C.3    14  TRP14       0.0550
      6  CG        48.6560   36.5350    3.6270 C.ar   14  TRP14       0.0003
      7  CD1       48.0420   37.7310    3.7540 C.ar   14  TRP14       0.0946
      8  CD2       47.7090   35.5220    4.0890 C.ar   14  TRP14       0.0152
      9  NE1       46.7880   37.5560    4.2600 N.ar   14  TRP14      -0.2442
     10  CE2       46.5500   36.2240    4.4730 C.ar   14  TRP14       0.0810
     11  CE3       47.7230   34.1280    4.1920 C.ar   14  TRP14       0.0012
     12  CZ2       45.4200   35.5920    4.9670 C.ar   14  TRP14       0.0191
     13  CZ3       46.6170   33.4900    4.6590 C.ar   14  TRP14       0.0001
     14  CH2       45.4780   34.2160    5.0400 C.ar   14  TRP14       0.0015
     15  N         47.9490   30.5470    2.0210 N.3    52  HIS52      -0.1297
     16  CA        47.5230   30.4240    0.6310 C.3    52  HIS52       0.1306
     17  C         48.5430   29.3540    0.0830 C.3    52  HIS52       0.2013
     18  O         49.7590   29.5360    0.4520 O.3    52  HIS52      -0.2188
     19  CB        47.5990   31.5840   -0.3880 C.3    52  HIS52       0.0691
     20  CG        46.9160   32.8420   -0.0080 C.ar   52  HIS52       0.0814
     21  ND1       47.4060   33.7710    0.8550 N.ar   52  HIS52      -0.2268
     22  CD2       45.7240   33.3670   -0.3940 C.ar   52  HIS52       0.1154
     23  CE1       46.5750   34.7840    0.9590 C.ar   52  HIS52       0.1986
     24  NE2       45.5350   34.5590    0.2190 N.ar   52  HIS52      -0.2212
     25  N         42.7090   26.9120    8.6650 N.3    86  MET86      -0.1245
     26  CA        42.1000   27.3250    7.3890 C.3    86  MET86       0.1570
     27  C         43.2050   27.3370    6.3490 C.2    86  MET86       0.2261
     28  O         44.3700   27.6080    6.7090 O.2    86  MET86      -0.2867
     29  CB        41.4430   28.7050    7.5700 C.3    86  MET86       0.0387
     30  CG        40.9260   29.3440    6.3510 C.3    86  MET86       0.0595
     31  SD        42.0800   30.2820    5.3150 S.3    86  MET86      -0.1393
     32  CE        42.2390   31.8580    6.1380 C.3    86  MET86       0.0692
     33  N         43.7500   28.4370    1.9730 N.3    88  THR88      -0.1203
     34  CA        43.1730   29.2150    0.8600 C.3    88  THR88       0.1994
     35  C         44.0630   29.1080   -0.3640 C.2    88  THR88       0.2618
     36  O         45.1870   28.5770   -0.3620 O.2    88  THR88      -0.2717
     37  CB        42.8000   30.6800    1.3400 C.3    88  THR88       0.1784
     38  OG1       42.0890   31.3230    0.2570 O.3    88  THR88      -0.2211
     39  CG2       43.9580   31.4860    1.8020 C.3    88  THR88       0.0376
     40  N         43.5580   29.5140   -1.5260 N.am   89  THR89      -0.1952
     41  CA        44.2150   29.4550   -2.7970 C.3    89  THR89       0.1897
     42  C         44.4690   30.8150   -3.3960 C.2    89  THR89       0.2313
     43  O         43.5240   31.6010   -3.3890 O.2    89  THR89      -0.2863
     44  CB        43.3120   28.6920   -3.8790 C.3    89  THR89       0.1794
     45  OG1       42.6640   27.6690   -3.0560 O.3    89  THR89      -0.2208
     46  CG2       43.9960   28.0740   -5.1040 C.3    89  THR89       0.0378
     47  N         45.0470   35.0490   -7.7870 N.3    92  PHE92      -0.1298
     48  CA        45.0900   36.4530   -8.1740 C.3    92  PHE92       0.1290
     49  C         46.4800   36.9400   -8.5520 C.3    92  PHE92       0.2013
     50  O         46.4710   37.9480   -9.2730 O.3    92  PHE92      -0.2188
     51  CB        44.4480   37.3280   -7.0210 C.3    92  PHE92       0.0480
     52  CG        44.9910   37.0270   -5.6540 C.ar   92  PHE92      -0.0206
     53  CD1       46.1540   37.6490   -5.2040 C.ar   92  PHE92      -0.0042
     54  CD2       44.3990   36.0890   -4.8050 C.ar   92  PHE92      -0.0042
     55  CE1       46.7430   37.3990   -3.9790 C.ar   92  PHE92      -0.0003
     56  CE2       44.9420   35.7830   -3.5530 C.ar   92  PHE92      -0.0003
     57  CZ        46.1030   36.4440   -3.1560 C.ar   92  PHE92      -0.0000
     58  N         38.9560   28.7680    2.3830 N.3   133  VAL133     -0.1245
     59  CA        38.4780   30.1160    2.0070 C.3   133  VAL133      0.1561
     60  C         38.8440   30.3940    0.5560 C.2   133  VAL133      0.2260
     61  O         39.9030   30.0830    0.0420 O.2   133  VAL133     -0.2867
     62  CB        38.9640   31.2490    2.9720 C.3   133  VAL133      0.0252
     63  CG1       38.6220   32.6580    2.5040 C.3   133  VAL133      0.0019
     64  CG2       38.5200   31.0830    4.4130 C.3   133  VAL133      0.0019
     65  N         38.6000   33.7750   -1.9010 N.3   135  TRP135     -0.1241
     66  CA        38.5510   35.2340   -2.0840 C.3   135  TRP135      0.1605
     67  C         38.6140   35.4290   -3.6080 C.2   135  TRP135      0.2264
     68  O         39.6630   35.1250   -4.1780 O.2   135  TRP135     -0.2867
     69  CB        39.6680   36.0150   -1.4240 C.3   135  TRP135      0.0550
     70  CG        39.6350   37.4500   -1.8210 C.ar  135  TRP135      0.0003
     71  CD1       38.5050   38.2590   -1.8170 C.ar  135  TRP135      0.0946
     72  CD2       40.7090   38.2670   -2.3610 C.ar  135  TRP135      0.0152
     73  NE1       38.8240   39.5120   -2.3010 N.ar  135  TRP135     -0.2442
     74  CE2       40.1620   39.5600   -2.6130 C.ar  135  TRP135      0.0810
     75  CE3       42.0470   38.0030   -2.6160 C.ar  135  TRP135      0.0012
     76  CZ2       40.9360   40.5820   -3.1330 C.ar  135  TRP135      0.0191
     77  CZ3       42.8110   39.0460   -3.1330 C.ar  135  TRP135      0.0001
     78  CH2       42.2820   40.3280   -3.3950 C.ar  135  TRP135      0.0015
     79  N         34.9720   35.1560    0.6800 N.3   179  GLU179     -0.1245
     80  CA        35.3480   36.4370    1.1740 C.3   179  GLU179      0.1567
     81  C         34.9830   37.5120    0.1420 C.2   179  GLU179      0.2260
     82  O         35.4820   37.5670   -0.9630 O.2   179  GLU179     -0.2867
     83  CB        36.8110   36.5660    1.4780 C.3   179  GLU179      0.0388
     84  CG        37.2150   37.8600    2.1860 C.3   179  GLU179      0.1160
     85  CD        38.7040   38.0970    2.2430 C.2   179  GLU179      0.3649
     86  OE1       39.3670   37.6510    3.1940 O.co2 179  GLU179     -0.2457
     87  OE2       39.1570   38.7840    1.2520 O.co2 179  GLU179     -0.2457
     88  N         33.2250   34.5570    4.9620 N.3   213  ASN213     -0.1240
     89  CA        34.4470   34.9830    5.5890 C.3   213  ASN213      0.1653
     90  C         34.5480   36.5320    5.4690 C.2   213  ASN213      0.2266
     91  O         35.3310   37.0100    4.6570 O.2   213  ASN213     -0.2867
     92  CB        35.6840   34.2490    5.0630 C.3   213  ASN213      0.1155
     93  CG        36.9590   34.7070    5.7990 C.2   213  ASN213      0.2627
     94  OD1       37.2220   34.3510    6.9470 O.2   213  ASN213     -0.2716
     95  ND2       37.8450   35.5210    5.2220 N.am  213  ASN213     -0.0877
     96  N         35.5260   40.3740    6.2420 N.3   215  GLU215     -0.1245
     97  CA        36.7800   41.0240    6.6160 C.3   215  GLU215      0.1567
     98  C         36.3960   42.4550    6.9720 C.2   215  GLU215      0.2260
     99  O         35.6970   43.1830    6.2060 O.2   215  GLU215     -0.2867
    100  CB        37.7960   40.9340    5.5020 C.3   215  GLU215      0.0388
    101  CG        38.9700   41.8930    5.6240 C.3   215  GLU215      0.1160
    102  CD        40.2030   41.5900    4.9020 C.2   215  GLU215      0.3649
    103  OE1       40.5270   40.4690    4.5990 O.co2 215  GLU215     -0.2457
    104  OE2       40.9050   42.5820    4.6140 O.co2 215  GLU215     -0.2457
    105  N         37.0570   45.4680    4.4250 N.3   218  HIS218     -0.1241
    106  CA        36.3100   45.3120    3.1630 C.3   218  HIS218      0.1621
    107  C         34.9070   45.8380    3.2320 C.2   218  HIS218      0.2264
    108  O         34.5700   46.6760    2.3580 O.2   218  HIS218     -0.2867
    109  CB        36.2710   43.8440    2.7500 C.3   218  HIS218      0.0745
    110  CG        37.6450   43.3650    2.4120 C.ar  218  HIS218      0.0817
    111  ND1       37.7430   42.0800    1.8540 N.ar  218  HIS218     -0.2268
    112  CD2       38.8850   43.8490    2.4570 C.ar  218  HIS218      0.1154
    113  CE1       38.9990   41.8330    1.6270 C.ar  218  HIS218      0.1986
    114  NE2       39.6970   42.8920    2.0070 N.ar  218  HIS218     -0.2212
    115  N         37.9580   37.5840    9.2470 N.3   243  ASP243     -0.1239
    116  CA        39.2460   38.2480    9.1300 C.3   243  ASP243      0.1674
    117  C         39.0260   39.5890    9.8730 C.2   243  ASP243      0.2266
    118  O         38.1500   40.3470    9.4790 O.2   243  ASP243     -0.2867
    119  CB        39.7490   38.4840    7.7350 C.3   243  ASP243      0.1410
    120  CG        40.2890   37.3290    6.9370 C.2   243  ASP243      0.3668
    121  OD1       40.5230   36.2330    7.4160 O.co2 243  ASP243     -0.2456
    122  OD2       40.4910   37.5650    5.7150 O.co2 243  ASP243     -0.2456
    123  N         42.4730   49.1760    0.2200 N.3   253  ASP253     -0.1239
    124  CA        42.4510   48.1900    1.3550 C.3   253  ASP253      0.1674
    125  C         43.7280   48.4080    2.2190 C.2   253  ASP253      0.2266
    126  O         44.8820   48.1370    1.7600 O.2   253  ASP253     -0.2867
    127  CB        42.2330   46.8570    0.7280 C.3   253  ASP253      0.1410
    128  CG        42.2150   45.6510    1.6230 C.2   253  ASP253      0.3668
    129  OD1       41.7690   45.8140    2.7530 O.co2 253  ASP253     -0.2456
    130  OD2       42.6500   44.6210    1.1740 O.co2 253  ASP253     -0.2456
    131  N         44.3730   47.0910    5.6290 N.3   255  ASP255     -0.1239
    132  CA        44.6820   45.9190    6.4370 C.3   255  ASP255      0.1674
    133  C         45.5500   46.3110    7.6390 C.2   255  ASP255      0.2266
    134  O         46.6310   45.7680    7.8460 O.2   255  ASP255     -0.2867
    135  CB        45.3330   44.8210    5.6310 C.3   255  ASP255      0.1410
    136  CG        44.4660   44.3040    4.5280 C.2   255  ASP255      0.3668
    137  OD1       43.2470   44.2840    4.5790 O.co2 255  ASP255     -0.2456
    138  OD2       45.1410   43.9210    3.5570 O.co2 255  ASP255     -0.2456
    139  N         40.7170   35.1960   13.4000 N.3   289  HIS289     -0.1241
    140  CA        41.8330   35.3010   12.4510 C.3   289  HIS289      0.1621
    141  C         42.1580   36.7410   12.1260 C.2   289  HIS289      0.2264
    142  O         41.2860   37.5520   11.8580 O.2   289  HIS289     -0.2867
    143  CB        41.5220   34.4740   11.1930 C.3   289  HIS289      0.0745
    144  CG        42.5120   34.4880   10.0820 C.ar  289  HIS289      0.0817
    145  ND1       42.4610   35.1610    8.8920 N.ar  289  HIS289     -0.2268
    146  CD2       43.6880   33.8230   10.0190 C.ar  289  HIS289      0.1154
    147  CE1       43.5460   34.9030    8.1980 C.ar  289  HIS289      0.1986
    148  NE2       44.3010   34.0700    8.8670 N.ar  289  HIS289     -0.2212
    149  N         43.7440   39.2710    9.4780 N.3   291  ASP291     -0.1239
    150  CA        44.2850   39.4300    8.1050 C.3   291  ASP291      0.1674
    151  C         44.7700   40.9080    7.9870 C.2   291  ASP291      0.2266
    152  O         43.9570   41.7520    7.6000 O.2   291  ASP291     -0.2867
    153  CB        43.3100   38.9370    7.0530 C.3   291  ASP291      0.1410
    154  CG        43.6800   39.2430    5.6210 C.2   291  ASP291      0.3668
    155  OD1       44.8350   39.5430    5.3060 O.co2 291  ASP291     -0.2456
    156  OD2       42.8180   39.2060    4.7090 O.co2 291  ASP291     -0.2456
@<TRIPOS>BOND
     1    50    49    1
     2    49    48    1
     3    48    47    1
     4    48    51    1
     5    51    52    1
     6    52    53   ar
     7    52    54   ar
     8    53    55   ar
     9    46    44    1
    10    54    56   ar
    11    68    67    2
    12    55    57   ar
    13    44    45    1
    14    44    41    1
    15    67    66    1
    16    56    57   ar
    17    42    43    2
    18    42    41    1
    19    78    76   ar
    20    78    77   ar
    21    76    74   ar
    22    77    75   ar
    23    41    40    1
    24    75    72   ar
    25    74    72   ar
    26    74    73   ar
    27    72    70   ar
    28    73    71   ar
    29    66    65    1
    30    66    69    1
    31    70    71   ar
    32    70    69    1
    33    40    35   am
    34    82    81    2
    35    22    20   ar
    36    22    24   ar
    37    19    20    1
    38    19    16    1
    39    35    36    2
    40    35    34    1
    41    20    21   ar
    42    61    60    2
    43    17    18    1
    44    17    16    1
    45    81    80    1
    46    24    23   ar
    47   123   124    1
    48    38    37    1
    49    60    59    1
    50    16    15    1
    51    79    80    1
    52   127   124    1
    53   127   128    1
    54    21    23   ar
    55    34    37    1
    56    34    33    1
    57   130   128   ar
    58    80    83    1
    59    87    85   ar
    60    37    39    1
    61   124   125    1
    62    83    84    1
    63   128   129   ar
    64   113   111   ar
    65   113   114   ar
    66   126   125    2
    67   111   110   ar
    68    59    58    1
    69    59    62    1
    70   114   112   ar
    71    84    85    1
    72    85    86   ar
    73   108   107    2
    74   110   112   ar
    75   110   109    1
    76    63    62    1
    77   109   106    1
    78    62    64    1
    79     5     6    1
    80     5     2    1
    81   106   107    1
    82   106   105    1
    83   138   136   ar
    84     6     7   ar
    85     6     8   ar
    86     7     9   ar
    87     8    11   ar
    88     8    10   ar
    89    11    13   ar
    90     2     3    1
    91     2     1    1
    92     9    10   ar
    93     4     3    2
    94    10    12   ar
    95   136   137   ar
    96   136   135    1
    97   103   102   ar
    98   104   102   ar
    99    91    90    2
   100    13    14   ar
   101   156   154   ar
   102   102   101    1
   103    88    89    1
   104    12    14   ar
   105    92    89    1
   106    92    93    1
   107    95    93   am
   108   155   154   ar
   109    31    32    1
   110    31    30    1
   111    90    89    1
   112   100   101    1
   113   100    97    1
   114   154   153    1
   115   131   132    1
   116   135   132    1
   117   122   120   ar
   118    93    94    2
   119    99    98    2
   120    96    97    1
   121    27    28    2
   122    27    26    1
   123    30    29    1
   124   132   133    1
   125    97    98    1
   126   120   121   ar
   127   120   119    1
   128   153   150    1
   129    26    29    1
   130    26    25    1
   131   152   151    2
   132   133   134    2
   133   119   116    1
   134   151   150    1
   135   150   149    1
   136   147   148   ar
   137   147   145   ar
   138   148   146   ar
   139   145   144   ar
   140   116   115    1
   141   116   117    1
   142   118   117    2
   143   146   144   ar
   144   144   143    1
   145   143   140    1
   146   142   141    2
   147   141   140    1
   148   140   139    1
