@<TRIPOS>MOLECULE
tmp/1dieA00.pdb
 174 164 0 0 0
SMALL
GASTEIGER

@<TRIPOS>ATOM
      1  N         21.1140   76.3320   18.1020 N.3    14  TRP14      -0.1241
      2  CA        20.4280   75.4270   17.1300 C.3    14  TRP14       0.1605
      3  C         20.7090   73.9370   17.3980 C.2    14  TRP14       0.2264
      4  O         20.0600   72.9910   16.9060 O.2    14  TRP14      -0.2867
      5  CB        20.8720   75.9040   15.7390 C.3    14  TRP14       0.0550
      6  CG        22.3110   75.5910   15.4680 C.ar   14  TRP14       0.0003
      7  CD1       22.8750   74.4550   14.9860 C.ar   14  TRP14       0.0946
      8  CD2       23.3920   76.5370   15.7030 C.ar   14  TRP14       0.0152
      9  NE1       24.2300   74.5890   14.8940 N.ar   14  TRP14      -0.2442
     10  CE2       24.5960   75.8700   15.3150 C.ar   14  TRP14       0.0810
     11  CE3       23.4610   77.8160   16.1950 C.ar   14  TRP14       0.0012
     12  CZ2       25.8600   76.4600   15.4200 C.ar   14  TRP14       0.0191
     13  CZ3       24.6970   78.4260   16.2800 C.ar   14  TRP14       0.0001
     14  CH2       25.8590   77.7650   15.8830 C.ar   14  TRP14       0.0015
     15  N         22.5700   81.7590   15.3280 N.3    52  HIS52      -0.1241
     16  CA        22.3460   82.3240   14.0180 C.3    52  HIS52       0.1621
     17  C         21.2570   83.4150   14.2990 C.2    52  HIS52       0.2264
     18  O         20.3390   83.1160   15.1150 O.2    52  HIS52      -0.2867
     19  CB        21.7060   81.4740   12.8950 C.3    52  HIS52       0.0745
     20  CG        22.4900   80.2740   12.4870 C.ar   52  HIS52       0.0817
     21  ND1       22.3050   79.1010   13.1800 N.ar   52  HIS52      -0.2268
     22  CD2       23.3600   79.9430   11.5410 C.ar   52  HIS52       0.1154
     23  CE1       23.0380   78.1260   12.6970 C.ar   52  HIS52       0.1986
     24  NE2       23.6820   78.6340   11.7070 N.ar   52  HIS52      -0.2212
     25  N         30.6430   83.6290   19.5550 N.3    86  MET86      -0.1245
     26  CA        30.4200   83.5940   18.0940 C.3    86  MET86       0.1570
     27  C         28.9440   83.7980   17.7850 C.2    86  MET86       0.2261
     28  O         28.0530   83.3370   18.5100 O.2    86  MET86      -0.2867
     29  CB        30.9220   82.2630   17.5720 C.3    86  MET86       0.0387
     30  CG        30.9730   82.0930   16.0990 C.3    86  MET86       0.0595
     31  SD        29.4080   81.3980   15.5550 S.3    86  MET86      -0.1393
     32  CE        29.3900   79.6730   16.0490 C.3    86  MET86       0.0692
     33  N         26.5350   83.9870   13.9900 N.3    88  THR88      -0.1203
     34  CA        26.5540   83.6430   12.5350 C.3    88  THR88       0.1994
     35  C         25.2300   84.0100   11.9160 C.2    88  THR88       0.2618
     36  O         24.3370   84.4800   12.6450 O.2    88  THR88      -0.2717
     37  CB        27.0890   82.1650   12.3740 C.3    88  THR88       0.1784
     38  OG1       27.2120   81.9680   10.9380 O.3    88  THR88      -0.2211
     39  CG2       26.1870   81.1260   13.0370 C.3    88  THR88       0.0376
     40  N         25.1060   83.9160   10.6110 N.am   89  THR89      -0.1952
     41  CA        23.9400   84.3300    9.8620 C.3    89  THR89       0.1897
     42  C         23.3050   83.1600    9.1530 C.2    89  THR89       0.2313
     43  O         24.0500   82.3020    8.6990 O.2    89  THR89      -0.2863
     44  CB        24.2360   85.3890    8.7090 C.3    89  THR89       0.1794
     45  OG1       25.2920   86.1130    9.3260 O.3    89  THR89      -0.2208
     46  CG2       23.1040   86.3130    8.2790 C.3    89  THR89       0.0378
     47  N         20.4550   80.3240    4.6820 N.3    92  PHE92      -0.1298
     48  CA        20.1190   79.0500    4.0600 C.3    92  PHE92       0.1290
     49  C         18.7240   78.5880    4.3000 C.3    92  PHE92       0.2013
     50  O         18.4190   77.7800    3.4060 O.3    92  PHE92      -0.2188
     51  CB        21.1090   77.9280    4.4120 C.3    92  PHE92       0.0480
     52  CG        21.3560   77.8460    5.9000 C.ar   92  PHE92      -0.0206
     53  CD1       20.4900   77.0390    6.7080 C.ar   92  PHE92      -0.0042
     54  CD2       22.4600   78.5980    6.4200 C.ar   92  PHE92      -0.0042
     55  CE1       20.7490   77.0340    8.0620 C.ar   92  PHE92      -0.0003
     56  CE2       22.6790   78.5670    7.8140 C.ar   92  PHE92      -0.0003
     57  CZ        21.8090   77.8090    8.6050 C.ar   92  PHE92      -0.0000
     58  N         31.1080   83.9280   12.0030 N.3   133  VAL133     -0.1245
     59  CA        31.1630   82.7320   11.1840 C.3   133  VAL133      0.1561
     60  C         30.2910   82.8850    9.9600 C.2   133  VAL133      0.2260
     61  O         29.1110   83.2570   10.0140 O.2   133  VAL133     -0.2867
     62  CB        30.8420   81.4680   12.0330 C.3   133  VAL133      0.0252
     63  CG1       30.4730   80.1830   11.3200 C.3   133  VAL133      0.0019
     64  CG2       31.9870   81.1730   13.0570 C.3   133  VAL133      0.0019
     65  N         29.0670   80.3020    6.9950 N.3   135  TRP135     -0.1241
     66  CA        28.8660   78.9120    6.4880 C.3   135  TRP135      0.1605
     67  C         28.0490   79.0630    5.1600 C.2   135  TRP135      0.2264
     68  O         26.8130   79.3250    5.2650 O.2   135  TRP135     -0.2867
     69  CB        28.2140   77.9320    7.4160 C.3   135  TRP135      0.0550
     70  CG        27.8790   76.6420    6.7800 C.ar  135  TRP135      0.0003
     71  CD1       28.7590   75.7480    6.2170 C.ar  135  TRP135      0.0946
     72  CD2       26.5700   76.1070    6.5570 C.ar  135  TRP135      0.0152
     73  NE1       28.0600   74.6570    5.6760 N.ar  135  TRP135     -0.2442
     74  CE2       26.7280   74.8800    5.8610 C.ar  135  TRP135      0.0810
     75  CE3       25.3040   76.5420    6.8790 C.ar  135  TRP135      0.0012
     76  CZ2       25.6520   74.1070    5.5050 C.ar  135  TRP135      0.0191
     77  CZ3       24.2180   75.7830    6.5140 C.ar  135  TRP135      0.0001
     78  CH2       24.3710   74.5630    5.8520 C.ar  135  TRP135      0.0015
     79  N         33.5580   78.5250    7.1850 N.3   179  GLU179     -0.1196
     80  CA        33.3130   77.1260    7.5260 C.3   179  GLU179      0.1783
     81  C         33.0130   76.3150    6.2590 C.2   179  GLU179      0.2306
     82  O         31.9220   76.4260    5.6300 O.2   179  GLU179     -0.2863
     83  CB        32.1760   76.9730    8.4910 C.2   179  GLU179      0.0071
     84  CG        31.8820   75.5990    9.0190 C.2   179  GLU179      0.0834
     85  CD        30.6590   75.4390    9.8740 C.2   179  GLU179      0.3877
     86  OE1       30.2210   76.3590   10.5550 O.co2 179  GLU179     -0.2406
     87  OE2       30.1080   74.3140    9.8600 O.co2 179  GLU179     -0.2406
     88  N         32.3770   73.1030    3.8080 N.3   181  LYS181     -0.1197
     89  CA        31.4760   71.9090    3.7600 C.3   181  LYS181      0.1778
     90  C         31.5040   71.4690    2.2610 C.2   181  LYS181      0.2305
     91  O         31.2410   72.2800    1.3580 O.2   181  LYS181     -0.2863
     92  CB        30.0730   72.0300    4.3440 C.2   181  LYS181     -0.0042
     93  CG        29.2330   70.7270    4.3950 C.2   181  LYS181     -0.0273
     94  CD        27.7810   70.8750    4.8540 C.3   181  LYS181      0.0462
     95  CE        27.2300   69.7040    5.5000 C.3   181  LYS181      0.1140
     96  NZ        25.8280   69.3350    5.6980 N.3   181  LYS181     -0.1310
     97  N         36.8820   77.9570   10.3840 N.3   213  ASN213     -0.1240
     98  CA        36.0120   77.3130   11.3500 C.3   213  ASN213      0.1653
     99  C         35.7530   75.8870   10.8130 C.2   213  ASN213      0.2266
    100  O         34.6680   75.5650   10.3100 O.2   213  ASN213     -0.2867
    101  CB        34.6640   78.0130   11.6160 C.3   213  ASN213      0.1155
    102  CG        33.8250   77.3640   12.7050 C.2   213  ASN213      0.2627
    103  OD1       34.4130   77.1640   13.8000 O.2   213  ASN213     -0.2716
    104  ND2       32.5720   77.0000   12.5130 N.am  213  ASN213     -0.0877
    105  N         34.9730   71.9370   10.7480 N.3   215  GLU215     -0.1196
    106  CA        34.0540   71.1530   11.5420 C.3   215  GLU215      0.1783
    107  C         34.4880   69.6990   11.3300 C.2   215  GLU215      0.2306
    108  O         34.5910   69.2100   10.2080 O.2   215  GLU215     -0.2863
    109  CB        32.5940   71.2930   11.1680 C.2   215  GLU215      0.0071
    110  CG        31.5440   70.5140   11.8800 C.2   215  GLU215      0.0834
    111  CD        30.1130   70.7270   11.5720 C.2   215  GLU215      0.3877
    112  OE1       29.5950   71.8430   11.6260 O.co2 215  GLU215     -0.2406
    113  OE2       29.4370   69.6870   11.2960 O.co2 215  GLU215     -0.2406
    114  N         32.4280   67.6200    8.6510 N.3   218  HIS218     -0.1241
    115  CA        32.5080   68.2120    7.3190 C.3   218  HIS218      0.1621
    116  C         33.7540   67.6500    6.6540 C.2   218  HIS218      0.2264
    117  O         33.5690   67.1010    5.5530 O.2   218  HIS218     -0.2867
    118  CB        32.5670   69.7430    7.4630 C.3   218  HIS218      0.0745
    119  CG        31.2710   70.3550    7.8400 C.ar  218  HIS218      0.0817
    120  ND1       31.0640   71.7210    7.8250 N.ar  218  HIS218     -0.2268
    121  CD2       30.0870   69.7630    8.2220 C.ar  218  HIS218      0.1154
    122  CE1       29.7940   71.9270    8.1940 C.ar  218  HIS218      0.1986
    123  NE2       29.1980   70.7650    8.4330 N.ar  218  HIS218     -0.2212
    124  N         34.5470   73.5870   15.3400 N.3   243  ASP243     -0.1239
    125  CA        33.2410   72.9520   15.5740 C.3   243  ASP243      0.1674
    126  C         33.5500   71.4270   15.7940 C.2   243  ASP243      0.2266
    127  O         34.1120   70.7960   14.8700 O.2   243  ASP243     -0.2867
    128  CB        32.2620   73.0900   14.4750 C.3   243  ASP243      0.1410
    129  CG        31.5050   74.3340   14.2000 C.2   243  ASP243      0.3668
    130  OD1       31.7040   75.3780   14.8090 O.co2 243  ASP243     -0.2456
    131  OD2       30.6530   74.2370   13.2710 O.co2 243  ASP243     -0.2456
    132  N         25.4940   64.5490    6.8990 N.3   253  ASP253     -0.1239
    133  CA        26.0710   65.1910    8.0840 C.3   253  ASP253      0.1674
    134  C         25.2730   64.6460    9.2400 C.2   253  ASP253      0.2266
    135  O         24.0620   64.9600    9.2780 O.2   253  ASP253     -0.2867
    136  CB        25.9400   66.7080    7.8850 C.3   253  ASP253      0.1410
    137  CG        26.6740   67.5600    8.8740 C.2   253  ASP253      0.3668
    138  OD1       27.7290   67.1370    9.4040 O.co2 253  ASP253     -0.2456
    139  OD2       26.2880   68.7160    9.2270 O.co2 253  ASP253     -0.2456
    140  N         26.3010   64.7670   12.6030 N.3   255  ASP255     -0.1239
    141  CA        26.3530   65.6990   13.7170 C.3   255  ASP255      0.1674
    142  C         26.1290   64.9490   15.0460 C.2   255  ASP255      0.2266
    143  O         25.3020   65.3470   15.8690 O.2   255  ASP255     -0.2867
    144  CB        25.3100   66.8020   13.5120 C.3   255  ASP255      0.1410
    145  CG        25.7620   67.9340   12.6170 C.2   255  ASP255      0.3668
    146  OD1       26.9010   68.4040   12.3640 O.co2 255  ASP255     -0.2456
    147  OD2       24.7450   68.4630   12.0360 O.co2 255  ASP255     -0.2456
    148  N         33.8400   74.6430   20.5050 N.3   289  HIS289     -0.1241
    149  CA        32.4090   74.6640   20.1810 C.3   289  HIS289      0.1621
    150  C         31.8690   73.3410   19.6940 C.2   289  HIS289      0.2264
    151  O         32.4420   72.5910   18.8520 O.2   289  HIS289     -0.2867
    152  CB        32.1580   75.8470   19.1850 C.3   289  HIS289      0.0745
    153  CG        30.7960   76.1440   18.7070 C.ar  289  HIS289      0.0817
    154  ND1       30.3130   75.8410   17.4640 N.ar  289  HIS289     -0.2268
    155  CD2       29.7200   76.7470   19.3040 C.ar  289  HIS289      0.1154
    156  CE1       29.0340   76.2190   17.3380 C.ar  289  HIS289      0.1986
    157  NE2       28.6550   76.8020   18.4380 N.ar  289  HIS289     -0.2212
    158  N         28.8900   71.6910   17.6760 N.3   291  ASP291     -0.1239
    159  CA        27.8280   71.8260   16.6570 C.3   291  ASP291      0.1674
    160  C         27.3700   70.3830   16.2960 C.2   291  ASP291      0.2266
    161  O         27.9410   69.8410   15.3210 O.2   291  ASP291     -0.2867
    162  CB        28.2890   72.6040   15.4450 C.3   291  ASP291      0.1410
    163  CG        27.2940   72.7080   14.2960 C.2   291  ASP291      0.3668
    164  OD1       26.1030   72.4460   14.5240 O.co2 291  ASP291     -0.2456
    165  OD2       27.7320   73.0850   13.1970 O.co2 291  ASP291     -0.2456
    166  N         23.7350   67.5360   16.8830 N.3   293  LYS293     -0.1245
    167  CA        22.3050   67.3960   17.0080 C.3   293  LYS293      0.1561
    168  C         21.9670   66.1670   17.8790 C.2   293  LYS293      0.2260
    169  O         22.4180   65.0680   17.6070 O.2   293  LYS293     -0.2867
    170  CB        21.6790   67.1380   15.6600 C.3   293  LYS293      0.0271
    171  CG        21.6720   68.3980   14.7850 C.3   293  LYS293      0.0035
    172  CD        21.3080   67.9210   13.3860 C.3   293  LYS293      0.0206
    173  CE        21.0350   69.0230   12.4550 C.3   293  LYS293      0.1093
    174  NZ        21.9510   70.2190   12.7070 N.3   293  LYS293     -0.1314
@<TRIPOS>BOND
     1    91    90    2
     2    90    89    1
     3    50    49    1
     4    89    88    1
     5    89    92    1
     6    48    49    1
     7    48    51    1
     8    48    47    1
     9    92    93    2
    10    93    94    1
    11    51    52    1
    12    94    95    1
    13    67    68    2
    14    67    66    1
    15    95    96    1
    16    76    78   ar
    17    76    74   ar
    18   117   116    2
    19    82    81    2
    20    73    74   ar
    21    73    71   ar
    22    78    77   ar
    23    74    72   ar
    24    52    54   ar
    25    52    53   ar
    26    71    70   ar
    27    81    80    1
    28    54    56   ar
    29    66    65    1
    30    66    69    1
    31    77    75   ar
    32    72    70   ar
    33    72    75   ar
    34   116   115    1
    35    53    55   ar
    36    70    69    1
    37   132   133    1
    38    79    80    1
    39   115   118    1
    40   115   114    1
    41   118   119    1
    42    80    83    1
    43    56    57   ar
    44   120   119   ar
    45   120   122   ar
    46   119   121   ar
    47   136   133    1
    48   136   137    1
    49    55    57   ar
    50   133   134    1
    51   122   123   ar
    52   121   123   ar
    53    46    44    1
    54    83    84    2
    55    43    42    2
    56    44    45    1
    57    44    41    1
    58   137   139   ar
    59   137   138   ar
    60    84    85    1
    61    42    41    1
    62   134   135    2
    63    87    85   ar
    64    41    40    1
    65    85    86   ar
    66    60    61    2
    67    60    59    1
    68   108   107    2
    69   100    99    2
    70    97    98    1
    71    40    35   am
    72   105   106    1
    73    99    98    1
    74    38    37    1
    75   109   106    1
    76   109   110    2
    77    59    58    1
    78    59    62    1
    79   113   111   ar
    80    63    62    1
    81   107   106    1
    82    98   101    1
    83    22    24   ar
    84    22    20   ar
    85   111   112   ar
    86   111   110    1
    87   101   102    1
    88    24    23   ar
    89    35    34    1
    90    35    36    2
    91    62    64    1
    92   147   145   ar
    93   146   145   ar
    94    37    34    1
    95    37    39    1
    96   173   174    1
    97   173   172    1
    98    20    19    1
    99    20    21   ar
   100   104   102   am
   101    34    33    1
   102   140   141    1
   103   145   144    1
   104    23    21   ar
   105   102   103    2
   106    19    16    1
   107   165   163   ar
   108   131   129   ar
   109   172   171    1
   110   144   141    1
   111   141   142    1
   112    16    17    1
   113    16    15    1
   114   129   128    1
   115   129   130   ar
   116   163   164   ar
   117   163   162    1
   118    17    18    2
   119   128   125    1
   120   171   170    1
   121   127   126    2
   122     9     7   ar
   123     9    10   ar
   124     7     6   ar
   125   142   143    2
   126    10    12   ar
   127    10     8   ar
   128   161   160    2
   129   124   125    1
   130    12    14   ar
   131   162   159    1
   132     6     8   ar
   133     6     5    1
   134    31    32    1
   135    31    30    1
   136   125   126    1
   137   170   167    1
   138     8    11   ar
   139     5     2    1
   140    14    13   ar
   141    30    29    1
   142    11    13   ar
   143   160   159    1
   144   159   158    1
   145   166   167    1
   146     4     3    2
   147   167   168    1
   148     2     3    1
   149     2     1    1
   150   156   154   ar
   151   156   157   ar
   152   154   153   ar
   153    29    26    1
   154   169   168    2
   155    27    26    1
   156    27    28    2
   157    26    25    1
   158   157   155   ar
   159   153   152    1
   160   153   155   ar
   161   151   150    2
   162   152   149    1
   163   150   149    1
   164   149   148    1
