@<TRIPOS>MOLECULE
tmp/1digA01.pdb
 141 136 0 0 0
SMALL
GASTEIGER

@<TRIPOS>ATOM
      1  N         -1.6090   60.5830   14.6420 N.3    51  TYR51      -0.1241
      2  CA        -0.5220   59.6660   14.9770 C.3    51  TYR51       0.1605
      3  C          0.3660   59.3930   13.7770 C.2    51  TYR51       0.2264
      4  O          1.5970   59.3780   13.8900 O.2    51  TYR51      -0.2867
      5  CB        -1.0800   58.3550   15.5370 C.3    51  TYR51       0.0534
      6  CG        -1.7200   58.5220   16.8970 C.ar   51  TYR51      -0.0201
      7  CD1       -2.7270   57.6550   17.3380 C.ar   51  TYR51      -0.0009
      8  CD2       -1.3240   59.5590   17.7480 C.ar   51  TYR51      -0.0009
      9  CE1       -3.3270   57.8240   18.6000 C.ar   51  TYR51       0.0417
     10  CE2       -1.9150   59.7350   19.0020 C.ar   51  TYR51       0.0417
     11  CZ        -2.9120   58.8690   19.4220 C.ar   51  TYR51       0.1957
     12  OH        -3.4890   59.0700   20.6570 O.3    51  TYR51      -0.2866
     13  N          2.5600   62.4070   12.8680 N.3    54  VAL54      -0.1231
     14  CA         3.7330   62.4990   13.7300 C.3    54  VAL54       0.1692
     15  C          4.8220   61.5830   13.1810 C.2    54  VAL54       0.2591
     16  O          5.9770   61.9840   13.0620 O.2    54  VAL54      -0.2718
     17  CB         3.3920   62.0800   15.1850 C.3    54  VAL54       0.0266
     18  CG1        4.6330   62.1590   16.0740 C.3    54  VAL54       0.0020
     19  CG2        2.3000   62.9760   15.7410 C.3    54  VAL54       0.0020
     20  N          4.4340   60.3590   12.8310 N.am   55  LYS55      -0.1980
     21  CA         5.3610   59.3750   12.2820 C.3    55  LYS55       0.1596
     22  C          5.9510   59.8620   10.9680 C.2    55  LYS55       0.2287
     23  O          7.1610   59.7590   10.7560 O.2    55  LYS55      -0.2864
     24  CB         4.6670   58.0220   12.0850 C.3    55  LYS55       0.0298
     25  CG         4.2110   57.3740   13.3890 C.3    55  LYS55       0.0038
     26  CD         3.3560   56.1510   13.1200 C.3    55  LYS55       0.0206
     27  CE         2.7130   55.6270   14.3940 C.3    55  LYS55       0.1093
     28  NZ         1.8160   54.4850   14.0900 N.3    55  LYS55      -0.1314
     29  N         -1.6590   50.6080   10.6060 N.3    99  GLN99      -0.1231
     30  CA        -2.1210   51.4280   11.7160 C.3    99  GLN99       0.1698
     31  C         -3.3450   50.8060   12.3710 C.2    99  GLN99       0.2592
     32  O         -4.3010   50.4420   11.6960 O.2    99  GLN99      -0.2718
     33  CB        -2.4730   52.8290   11.2160 C.3    99  GLN99       0.0381
     34  CG        -2.8070   53.8310   12.3110 C.3    99  GLN99       0.0905
     35  CD        -1.5960   54.2340   13.1330 C.2    99  GLN99       0.2608
     36  OE1       -0.4670   54.2680   12.6310 O.2    99  GLN99      -0.2717
     37  NE2       -1.8260   54.5560   14.4030 N.am   99  GLN99      -0.0878
     38  N         -3.3070   50.6860   13.6930 N.am  100  LEU100     -0.1966
     39  CA        -4.4180   50.1070   14.4400 C.3   100  LEU100      0.1713
     40  C         -5.0980   51.1620   15.3070 C.2   100  LEU100      0.2458
     41  O         -4.4530   52.0900   15.7860 O.2   100  LEU100     -0.2730
     42  CB        -3.9270   48.9300   15.2880 C.3   100  LEU100      0.0310
     43  CG        -3.3530   47.7760   14.4530 C.3   100  LEU100      0.0022
     44  CD1       -2.8200   46.6650   15.3590 C.3   100  LEU100      0.0001
     45  CD2       -4.4220   47.2360   13.4910 C.3   100  LEU100      0.0001
     46  N         -6.4160   51.0230   15.5330 N.am  101  PRO101     -0.2727
     47  CA        -7.2870   49.9490   15.0380 C.3   101  PRO101      0.1402
     48  C         -7.8460   50.2110   13.6410 C.2   101  PRO101      0.2269
     49  O         -8.0110   51.3610   13.2390 O.2   101  PRO101     -0.2865
     50  CB        -8.3970   49.9240   16.0830 C.3   101  PRO101      0.0296
     51  CG        -8.5940   51.3900   16.3500 C.3   101  PRO101      0.0237
     52  CD        -7.1750   51.9580   16.3910 C.3   101  PRO101      0.0939
     53  N          6.4370   50.4710   21.3010 N.3   147  THR147     -0.1218
     54  CA         6.1380   50.9820   22.6400 C.3   147  THR147      0.1862
     55  C          7.0040   50.2970   23.6940 C.2   147  THR147      0.2287
     56  O          7.5700   50.9700   24.5500 O.2   147  THR147     -0.2866
     57  CB         4.6490   50.8710   22.9830 C.3   147  THR147      0.1770
     58  OG1        3.8890   51.4860   21.9370 O.3   147  THR147     -0.2211
     59  CG2        4.3500   51.5850   24.2930 C.3   147  THR147      0.0375
     60  N          0.2230   44.6840   21.8100 N.3   175  ILE175     -0.1245
     61  CA         0.9010   45.9200   21.4480 C.3   175  ILE175      0.1561
     62  C          1.8820   46.4170   22.4910 C.2   175  ILE175      0.2260
     63  O          2.9700   46.8690   22.1470 O.2   175  ILE175     -0.2867
     64  CB        -0.1230   47.0670   21.1600 C.3   175  ILE175      0.0252
     65  CG1       -1.1410   46.6190   20.1140 C.3   175  ILE175      0.0019
     66  CG2        0.5860   48.3020   20.6050 C.3   175  ILE175      0.0019
     67  CD1       -0.5090   46.2260   18.7960 C.3   175  ILE175      0.0001
     68  N         -2.4380   57.0240   27.5580 N.3   237  ILE237     -0.1245
     69  CA        -2.8360   58.2250   26.8180 C.3   237  ILE237      0.1561
     70  C         -4.3610   58.2700   27.0240 C.2   237  ILE237      0.2260
     71  O         -5.1120   57.6450   26.2740 O.2   237  ILE237     -0.2867
     72  CB        -2.5170   58.0920   25.2950 C.3   237  ILE237      0.0252
     73  CG1       -1.0180   57.8560   25.0730 C.3   237  ILE237      0.0019
     74  CG2       -2.9710   59.3470   24.5350 C.3   237  ILE237      0.0019
     75  CD1       -0.1390   59.0270   25.4890 C.3   237  ILE237      0.0001
     76  N         -8.0390   60.6020   27.9250 N.3   239  TYR239     -0.1241
     77  CA        -8.7220   61.9020   27.9040 C.3   239  TYR239      0.1605
     78  C         -9.8040   61.9990   28.9810 C.2   239  TYR239      0.2264
     79  O         -9.7020   62.8110   29.9060 O.2   239  TYR239     -0.2867
     80  CB        -9.3360   62.1640   26.5250 C.3   239  TYR239      0.0534
     81  CG        -8.3570   62.0180   25.3790 C.ar  239  TYR239     -0.0201
     82  CD1       -8.5060   60.9980   24.4410 C.ar  239  TYR239     -0.0009
     83  CD2       -7.2680   62.8850   25.2430 C.ar  239  TYR239     -0.0009
     84  CE1       -7.5900   60.8340   23.3880 C.ar  239  TYR239      0.0417
     85  CE2       -6.3460   62.7340   24.1970 C.ar  239  TYR239      0.0417
     86  CZ        -6.5120   61.7020   23.2720 C.ar  239  TYR239      0.1957
     87  OH        -5.5960   61.5140   22.2460 O.3   239  TYR239     -0.2866
     88  N         -5.0920   65.3350   28.9230 N.3   241  VAL241     -0.1245
     89  CA        -4.4820   64.0300   28.7060 C.3   241  VAL241      0.1561
     90  C         -3.7730   63.6300   29.9960 C.2   241  VAL241      0.2260
     91  O         -3.0790   64.4440   30.6160 O.2   241  VAL241     -0.2867
     92  CB        -3.4560   64.0590   27.5460 C.3   241  VAL241      0.0252
     93  CG1       -2.9630   62.6410   27.2220 C.3   241  VAL241      0.0019
     94  CG2       -4.0720   64.7090   26.3240 C.3   241  VAL241      0.0019
     95  N          1.7330   64.1560   28.7970 N.3   261  PRO261     -0.2102
     96  CA         2.5050   63.6020   27.6750 C.3   261  PRO261      0.1504
     97  C          4.0070   63.8380   27.8000 C.2   261  PRO261      0.2576
     98  O          4.4960   64.2250   28.8590 O.2   261  PRO261     -0.2718
     99  CB         1.9460   64.3710   26.4830 C.3   261  PRO261      0.0282
    100  CG         1.7340   65.7290   27.0670 C.3   261  PRO261      0.0208
    101  CD         1.0710   65.4140   28.4010 C.3   261  PRO261      0.0893
    102  N          4.7260   63.6070   26.7040 N.am  262  GLY262     -0.1943
    103  CA         6.1660   63.8190   26.6810 C.3   262  GLY262      0.2014
    104  C          7.0210   62.7380   27.3200 C.2   262  GLY262      0.2639
    105  O          8.1980   62.9740   27.6300 O.2   262  GLY262     -0.2714
    106  N          6.4460   61.5520   27.4920 N.am  263  GLY263     -0.1939
    107  CA         7.1800   60.4570   28.0950 C.3   263  GLY263      0.2014
    108  C          7.3850   59.2990   27.1450 C.2   263  GLY263      0.2639
    109  O          8.2930   59.3200   26.3100 O.2   263  GLY263     -0.2714
    110  N          6.5250   58.2940   27.2580 N.am  264  VAL264     -0.1963
    111  CA         6.6090   57.1090   26.4120 C.3   264  VAL264      0.1727
    112  C          6.3390   57.3420   24.9130 C.2   264  VAL264      0.2617
    113  O          7.0640   56.8390   24.0710 O.2   264  VAL264     -0.2715
    114  CB         5.6530   56.0010   26.9660 C.3   264  VAL264      0.0290
    115  CG1        5.5400   54.8390   25.9880 C.3   264  VAL264      0.0023
    116  CG2        6.1640   55.5010   28.3070 C.3   264  VAL264      0.0023
    117  N          5.3470   58.1750   24.6070 N.am  265  GLY265     -0.1941
    118  CA         4.9720   58.4120   23.2350 C.3   265  GLY265      0.1998
    119  C          6.0430   58.9140   22.2840 C.2   265  GLY265      0.2480
    120  O          6.0960   58.3760   21.1670 O.2   265  GLY265     -0.2729
    121  N          6.8240   59.9800   22.6040 N.am  266  PRO266     -0.2726
    122  CA         7.8370   60.3840   21.6260 C.3   266  PRO266      0.1402
    123  C          8.8280   59.2340   21.4240 C.2   266  PRO266      0.2269
    124  O          9.3180   59.0050   20.3120 O.2   266  PRO266     -0.2865
    125  CB         8.4930   61.5750   22.3360 C.3   266  PRO266      0.0296
    126  CG         7.4700   62.0600   23.3150 C.3   266  PRO266      0.0237
    127  CD         6.9360   60.7560   23.8370 C.3   266  PRO266      0.0939
    128  N          8.2540   56.1250   21.4530 N.3   268  THR268     -0.1203
    129  CA         7.6180   55.1190   20.6000 C.3   268  THR268      0.1994
    130  C          7.8810   55.4050   19.1120 C.2   268  THR268      0.2617
    131  O          8.1910   54.4950   18.3430 O.2   268  THR268     -0.2717
    132  CB         6.0890   55.0530   20.8770 C.3   268  THR268      0.1784
    133  OG1        5.8600   54.4980   22.1850 O.3   268  THR268     -0.2211
    134  CG2        5.3720   54.1960   19.8350 C.3   268  THR268      0.0376
    135  N          7.7920   56.6740   18.7180 N.am  269  VAL269     -0.1979
    136  CA         8.0270   57.0610   17.3290 C.3   269  VAL269      0.1595
    137  C          9.5100   56.9600   16.9630 C.2   269  VAL269      0.2287
    138  O          9.8550   56.5460   15.8560 O.2   269  VAL269     -0.2864
    139  CB         7.5090   58.4870   17.0460 C.3   269  VAL269      0.0276
    140  CG1        7.7490   58.8630   15.5880 C.3   269  VAL269      0.0022
    141  CG2        6.0250   58.5730   17.3710 C.3   269  VAL269      0.0022
@<TRIPOS>BOND
     1    29    30    1
     2    23    22    2
     3    22    21    1
     4    33    30    1
     5    33    34    1
     6    32    31    2
     7    30    31    1
     8    24    21    1
     9    24    25    1
    10    21    20    1
    11    34    35    1
    12    31    38   am
    13    36    35    2
    14    20    15   am
    15    13    14    1
    16    16    15    2
    17    26    25    1
    18    26    27    1
    19    35    37   am
    20    15    14    1
    21    49    48    2
    22    45    43    1
    23    48    47    1
    24    38    39    1
    25    14    17    1
    26     3     4    2
    27     3     2    1
    28    28    27    1
    29    39    42    1
    30    39    40    1
    31    43    42    1
    32    43    44    1
    33     1     2    1
    34     2     5    1
    35    47    46    1
    36    47    50    1
    37    17    19    1
    38    17    18    1
    39    40    46   am
    40    40    41    2
    41    46    52    1
    42     5     6    1
    43   140   139    1
    44   138   137    2
    45    50    51    1
    46    51    52    1
    47     6     7   ar
    48     6     8   ar
    49   137   136    1
    50   139   136    1
    51   139   141    1
    52   136   135    1
    53     7     9   ar
    54     8    10   ar
    55   131   130    2
    56     9    11   ar
    57   135   130   am
    58    67    65    1
    59    10    11   ar
    60   130   129    1
    61    11    12    1
    62   134   132    1
    63    65    64    1
    64   124   123    2
    65   129   132    1
    66   129   128    1
    67    66    64    1
    68   132   133    1
    69    64    61    1
    70   120   119    2
    71    53    54    1
    72   123   122    1
    73    61    60    1
    74    61    62    1
    75   122   125    1
    76   122   121    1
    77    58    57    1
    78    63    62    2
    79    87    86    1
    80   119   121   am
    81   119   118    1
    82   125   126    1
    83   121   127    1
    84    54    57    1
    85    54    55    1
    86    57    59    1
    87   118   117    1
    88    86    84   ar
    89    86    85   ar
    90   126   127    1
    91    84    82   ar
    92    55    56    2
    93   113   112    2
    94    85    83   ar
    95    82    81   ar
    96    74    72    1
    97   117   112   am
    98   112   111    1
    99    73    72    1
   100    73    75    1
   101    83    81   ar
   102    72    69    1
   103    81    80    1
   104   115   114    1
   105    71    70    2
   106   109   108    2
   107    94    92    1
   108   111   114    1
   109   111   110    1
   110    99   100    1
   111    99    96    1
   112    80    77    1
   113   103   102    1
   114   103   104    1
   115   102    97   am
   116    69    70    1
   117    69    68    1
   118   114   116    1
   119   100   101    1
   120   108   110   am
   121   108   107    1
   122    93    92    1
   123   104   106   am
   124   104   105    2
   125   106   107    1
   126    92    89    1
   127    96    97    1
   128    96    95    1
   129    97    98    2
   130    77    76    1
   131    77    78    1
   132   101    95    1
   133    89    88    1
   134    89    90    1
   135    78    79    2
   136    90    91    2
