@<TRIPOS>MOLECULE
tmp/1dihA00.pdb
 184 178 0 0 0
SMALL
GASTEIGER

@<TRIPOS>ATOM
      1  N         23.7210    6.5430   12.6690 N.3    11  GLY11      -0.1225
      2  CA        25.0280    6.9180   13.2010 C.3    11  GLY11       0.1811
      3  C         26.0120    5.7530   13.1930 C.2    11  GLY11       0.2280
      4  O         26.9840    5.7840   13.9690 O.2    11  GLY11      -0.2866
      5  N         28.6290    4.3280   11.9540 N.3    13  GLY13      -0.1210
      6  CA        30.0370    4.2480   12.1960 C.3    13  GLY13       0.1956
      7  C         30.4630    5.1840   13.3080 C.2    13  GLY13       0.2612
      8  O         31.6100    5.5810   13.4120 O.2    13  GLY13      -0.2717
      9  N         29.5380    5.6200   14.1290 N.am   14  GLY14      -0.1942
     10  CA        29.9100    6.5570   15.1690 C.3    14  GLY14       0.2014
     11  C         30.3230    5.8370   16.4610 C.2    14  GLY14       0.2639
     12  O         30.2530    4.5780   16.5390 O.2    14  GLY14      -0.2714
     13  N         30.8040    6.6340   17.4410 N.am   15  ARG15      -0.1963
     14  CA        31.2870    6.0730   18.6950 C.3    15  ARG15       0.1729
     15  C         30.2930    5.1810   19.3930 C.2    15  ARG15       0.2616
     16  O         30.5580    4.0210   19.5500 O.2    15  ARG15      -0.2715
     17  CB        32.0570    7.0390   19.5510 C.3    15  ARG15       0.0348
     18  CG        32.9960    7.8220   18.6270 C.3    15  ARG15       0.0492
     19  CD        33.9580    8.7700   19.3580 C.3    15  ARG15       0.2205
     20  NE        33.2940    9.9080   20.0060 N.pl3  15  ARG15      -0.0865
     21  CZ        33.4120   10.2340   21.2870 C.cat  15  ARG15       0.5346
     22  NH1       34.1330    9.5080   22.1660 N.pl3  15  ARG15       0.1354
     23  NH2       32.7230   11.2950   21.7050 N.pl3  15  ARG15       0.1354
     24  N         29.0530    5.6240   19.5000 N.am   16  MET16      -0.1963
     25  CA        28.0240    4.7760   20.0110 C.3    16  MET16       0.1736
     26  C         27.4570    3.7880   18.9950 C.2    16  MET16       0.2617
     27  O         26.9300    2.7210   19.3710 O.2    16  MET16      -0.2715
     28  CB        26.9320    5.6700   20.5080 C.3    16  MET16       0.0427
     29  CG        27.4610    6.4970   21.6460 C.3    16  MET16       0.0599
     30  SD        27.8120    5.5100   23.1360 S.3    16  MET16      -0.1393
     31  CE        26.2940    4.5200   23.1700 C.3    16  MET16       0.0692
     32  N         27.3400    4.2320   17.7250 N.am   17  GLY17      -0.1955
     33  CA        26.8050    3.4200   16.6460 C.3    17  GLY17       0.1869
     34  C         27.4750    2.0800   16.6970 C.2    17  GLY17       0.2309
     35  O         26.8030    1.0760   16.7250 O.2    17  GLY17      -0.2863
     36  N         24.1550    5.1930    7.8010 N.3    37  GLU37      -0.1231
     37  CA        25.3130    6.0370    7.7560 C.3    37  GLU37       0.1699
     38  C         24.9720    7.2410    6.9280 C.2    37  GLU37       0.2592
     39  O         23.8840    7.3650    6.3320 O.2    37  GLU37      -0.2718
     40  CB        26.5490    5.3420    7.2070 C.3    37  GLU37       0.0402
     41  CG        27.4570    4.9030    8.3440 C.3    37  GLU37       0.1161
     42  CD        28.0890    6.0420    9.0710 C.2    37  GLU37       0.3649
     43  OE1       29.0740    6.5780    8.3970 O.co2  37  GLU37      -0.2457
     44  OE2       27.7920    6.3610   10.1980 O.co2  37  GLU37      -0.2457
     45  N         25.9200    8.1290    6.9450 N.am   38  ARG38      -0.1980
     46  CA        25.8400    9.4280    6.3410 C.3    38  ARG38       0.1597
     47  C         26.4310    9.4090    4.9590 C.2    38  ARG38       0.2287
     48  O         27.6370    9.1630    4.8340 O.2    38  ARG38      -0.2864
     49  CB        26.7190   10.3130    7.1910 C.3    38  ARG38       0.0334
     50  CG        26.0550   11.5420    7.7900 C.3    38  ARG38       0.0492
     51  CD        26.9350   12.7410    7.4710 C.3    38  ARG38       0.2205
     52  NE        26.8290   13.8460    8.4130 N.pl3  38  ARG38      -0.0865
     53  CZ        25.6550   14.3940    8.6380 C.cat  38  ARG38       0.5346
     54  NH1       24.5770   13.9600    7.9880 N.pl3  38  ARG38       0.1354
     55  NH2       25.5660   15.4560    9.4520 N.pl3  38  ARG38       0.1354
     56  N         21.6360    7.9930   18.2800 N.3    78  PHE78      -0.1227
     57  CA        22.6410    8.6820   19.0370 C.3    78  PHE78       0.1736
     58  C         23.5030    9.3620   18.0080 C.2    78  PHE78       0.2596
     59  O         24.5520    8.8250   17.6890 O.2    78  PHE78      -0.2718
     60  CB        23.5090    7.6990   19.8810 C.3    78  PHE78       0.0547
     61  CG        22.7910    7.0300   21.0620 C.ar   78  PHE78      -0.0202
     62  CD1       21.5960    6.3220   20.9360 C.ar   78  PHE78      -0.0042
     63  CD2       23.2670    7.1780   22.3630 C.ar   78  PHE78      -0.0042
     64  CE1       20.9730    5.6830   22.0070 C.ar   78  PHE78      -0.0003
     65  CE2       22.5620    6.6910   23.4650 C.ar   78  PHE78      -0.0003
     66  CZ        21.4940    5.8030   23.2900 C.ar   78  PHE78      -0.0000
     67  N         23.1180   10.5780   17.5980 N.am   79  THR79      -0.1939
     68  CA        23.5670   11.3360   16.4210 C.3    79  THR79       0.2028
     69  C         23.8810   12.7520   16.7720 C.2    79  THR79       0.2642
     70  O         24.6640   12.9520   17.7170 O.2    79  THR79      -0.2714
     71  CB        22.3850   11.1340   15.4660 C.3    79  THR79       0.1808
     72  OG1       22.6500    9.9300   14.8030 O.3    79  THR79      -0.2208
     73  CG2       21.8520   12.1840   14.5290 C.3    79  THR79       0.0379
     74  N         23.0900   13.7190   16.2080 N.am   80  ARG80      -0.1977
     75  CA        23.0830   15.1520   16.4570 C.3    80  ARG80       0.1597
     76  C         21.6700   15.5980   16.2120 C.2    80  ARG80       0.2287
     77  O         20.9510   15.0130   15.3820 O.2    80  ARG80      -0.2864
     78  CB        23.9780   15.8330   15.4590 C.3    80  ARG80       0.0334
     79  CG        25.1010   16.6170   16.0790 C.3    80  ARG80       0.0492
     80  CD        26.0690   15.7310   16.8260 C.3    80  ARG80       0.2205
     81  NE        27.4030   16.3070   16.9130 N.pl3  80  ARG80      -0.0865
     82  CZ        28.4540   15.5630   17.2130 C.cat  80  ARG80       0.5346
     83  NH1       28.3180   14.2520   17.4830 N.pl3  80  ARG80       0.1354
     84  NH2       29.6630   16.1320   17.2350 N.pl3  80  ARG80       0.1354
     85  N         20.2250   17.8600   14.7600 N.3    82  GLU82      -0.1231
     86  CA        19.8590   18.1480   13.3600 C.3    82  GLU82       0.1699
     87  C         19.4560   16.8420   12.6350 C.2    82  GLU82       0.2592
     88  O         18.3870   16.7850   12.0380 O.2    82  GLU82      -0.2718
     89  CB        21.0380   18.8700   12.6680 C.3    82  GLU82       0.0402
     90  CG        22.4100   18.2410   13.1490 C.3    82  GLU82       0.1161
     91  CD        23.3330   19.0080   14.1050 C.2    82  GLU82       0.3649
     92  OE1       22.9940   19.5850   15.1510 O.co2  82  GLU82      -0.2457
     93  OE2       24.5960   18.8290   13.7520 O.co2  82  GLU82      -0.2457
     94  N         20.1310   15.7020   12.9590 N.am   83  GLY83      -0.1957
     95  CA        19.7630   14.3790   12.3800 C.3    83  GLY83       0.1869
     96  C         18.5260   13.8600   13.0580 C.2    83  GLY83       0.2309
     97  O         17.5790   13.2830   12.4690 O.2    83  GLY83      -0.2863
     98  N         15.4590   15.0660   11.7450 N.3    86  ASN86      -0.1225
     99  CA        15.1670   14.3930   10.5130 C.3    86  ASN86       0.1785
    100  C         14.4530   13.0960   10.8000 C.2    86  ASN86       0.2597
    101  O         13.3390   12.8350   10.3500 O.2    86  ASN86      -0.2718
    102  CB        16.4480   14.0380    9.7150 C.3    86  ASN86       0.1169
    103  CG        16.8560   15.0970    8.7260 C.2    86  ASN86       0.2627
    104  OD1       16.0140   15.9100    8.2820 O.2    86  ASN86      -0.2716
    105  ND2       18.1640   15.1520    8.4150 N.am   86  ASN86      -0.0877
    106  N         15.1650   12.2590   11.5280 N.am   87  HIS87      -0.1975
    107  CA        14.7360   10.9130   11.8400 C.3    87  HIS87       0.1656
    108  C         13.3820   10.9050   12.4860 C.2    87  HIS87       0.2291
    109  O         12.5440   10.0890   12.2510 O.2    87  HIS87      -0.2864
    110  CB        15.7760   10.3450   12.7550 C.3    87  HIS87       0.0771
    111  CG        17.1170   10.3760   12.1080 C.ar   87  HIS87       0.0820
    112  ND1       17.2660   10.1230   10.7500 N.ar   87  HIS87      -0.2267
    113  CD2       18.3430   10.5520   12.6360 C.ar   87  HIS87       0.1154
    114  CE1       18.5800   10.0970   10.4940 C.ar   87  HIS87       0.1986
    115  NE2       19.2480   10.3770   11.6020 N.ar   87  HIS87      -0.2212
    116  N         18.9770    9.1270   22.2010 N.3   101  GLY101     -0.1210
    117  CA        19.9900    9.3420   23.1660 C.3   101  GLY101      0.1956
    118  C         20.7390   10.5910   22.8720 C.2   101  GLY101      0.2613
    119  O         21.4560   11.0930   23.7670 O.2   101  GLY101     -0.2717
    120  N         20.5860   11.0690   21.6230 N.am  102  THR102     -0.1938
    121  CA        21.1450   12.3550   21.2220 C.3   102  THR102      0.2028
    122  C         20.9610   13.4430   22.2870 C.2   102  THR102      0.2642
    123  O         19.8880   13.6720   22.8480 O.2   102  THR102     -0.2714
    124  CB        20.4080   12.8050   19.9720 C.3   102  THR102      0.1808
    125  OG1       20.7240   11.9100   18.9620 O.3   102  THR102     -0.2208
    126  CG2       20.9590   14.0910   19.5040 C.3   102  THR102      0.0379
    127  N         21.9850   14.2430   22.5010 N.am  103  THR103     -0.1950
    128  CA        21.8320   15.3680   23.4110 C.3   103  THR103      0.1897
    129  C         22.0400   16.7270   22.7400 C.2   103  THR103      0.2313
    130  O         22.5000   16.8450   21.6090 O.2   103  THR103     -0.2863
    131  CB        22.8430   15.2750   24.5310 C.3   103  THR103      0.1794
    132  OG1       24.1380   15.2850   24.0110 O.3   103  THR103     -0.2208
    133  CG2       22.6400   14.0060   25.3130 C.3   103  THR103      0.0378
    134  N         16.1430    9.8230   26.7960 N.3   125  ALA125     -0.1231
    135  CA        16.7640   10.0240   28.1140 C.3   125  ALA125      0.1694
    136  C         18.1600   10.5870   28.0040 C.2   125  ALA125      0.2592
    137  O         18.8400   10.3420   27.0400 O.2   125  ALA125     -0.2718
    138  CB        16.7840    8.7910   29.0420 C.3   125  ALA125      0.0304
    139  N         18.6330   11.2450   29.0600 N.am  126  ALA126     -0.1966
    140  CA        19.9890   11.8140   29.0570 C.3   126  ALA126      0.1728
    141  C         21.0510   10.8680   29.5780 C.2   126  ALA126      0.2616
    142  O         22.2310   11.2030   29.5480 O.2   126  ALA126     -0.2715
    143  CB        20.0950   13.1260   29.8190 C.3   126  ALA126      0.0334
    144  N         20.6120    9.7180   30.0590 N.am  127  ASN127     -0.1958
    145  CA        21.5160    8.7480   30.5480 C.3   127  ASN127      0.1819
    146  C         20.9270    7.3930   30.4080 C.2   127  ASN127      0.2621
    147  O         20.0350    7.0080   31.1620 O.2   127  ASN127     -0.2715
    148  CB        21.8380    9.0140   32.0310 C.3   127  ASN127      0.1195
    149  CG        23.0350    8.2100   32.5400 C.2   127  ASN127      0.2630
    150  OD1       22.9990    6.9810   32.5260 O.2   127  ASN127     -0.2716
    151  ND2       24.1040    8.8360   32.9950 N.am  127  ASN127     -0.0877
    152  N         21.5200    6.6730   29.5040 N.am  128  PHE128     -0.1974
    153  CA        20.9610    5.3820   29.2480 C.3   128  PHE128      0.1639
    154  C         21.5570    4.2620   30.1010 C.2   128  PHE128      0.2290
    155  O         21.2120    3.0940   29.8890 O.2   128  PHE128     -0.2864
    156  CB        21.0570    5.0730   27.7510 C.3   128  PHE128      0.0560
    157  CG        19.8000    5.4890   26.9900 C.ar  128  PHE128     -0.0200
    158  CD1       18.6230    4.7450   27.0540 C.ar  128  PHE128     -0.0042
    159  CD2       19.7380    6.6970   26.2960 C.ar  128  PHE128     -0.0042
    160  CE1       17.4950    5.0980   26.3050 C.ar  128  PHE128     -0.0003
    161  CE2       18.5790    7.1350   25.6510 C.ar  128  PHE128     -0.0003
    162  CZ        17.4660    6.2960   25.5980 C.ar  128  PHE128     -0.0000
    163  N         31.5280    2.6840   26.9600 N.3   239  ARG239     -0.1245
    164  CA        30.2930    3.2970   26.6690 C.3   239  ARG239      0.1563
    165  C         29.2770    2.2640   26.2940 C.2   239  ARG239      0.2260
    166  O         28.1460    2.5700   25.9860 O.2   239  ARG239     -0.2867
    167  CB        30.4080    4.5280   25.8470 C.3   239  ARG239      0.0307
    168  CG        30.8350    5.6900   26.7500 C.3   239  ARG239      0.0489
    169  CD        31.5920    6.8310   26.0480 C.3   239  ARG239      0.2205
    170  NE        31.4060    6.8860   24.5780 N.pl3 239  ARG239     -0.0865
    171  CZ        30.6980    7.8280   23.8880 C.cat 239  ARG239      0.5346
    172  NH1       30.0590    8.8820   24.4550 N.pl3 239  ARG239      0.1354
    173  NH2       30.6130    7.6830   22.5730 N.pl3 239  ARG239      0.1354
    174  N         25.8030    2.6830   28.0230 N.3   242  PHE242     -0.1241
    175  CA        24.7560    3.4620   27.3510 C.3   242  PHE242      0.1605
    176  C         24.0140    2.7180   26.2790 C.2   242  PHE242      0.2264
    177  O         22.7590    2.7220   26.2190 O.2   242  PHE242     -0.2867
    178  CB        25.3240    4.7390   26.8140 C.3   242  PHE242      0.0534
    179  CG        26.0010    5.4630   27.9450 C.ar  242  PHE242     -0.0203
    180  CD1       25.2890    5.8080   29.0930 C.ar  242  PHE242     -0.0042
    181  CD2       27.3790    5.6460   27.9070 C.ar  242  PHE242     -0.0042
    182  CE1       25.9380    6.4230   30.1650 C.ar  242  PHE242     -0.0003
    183  CE2       28.0420    6.2980   28.9410 C.ar  242  PHE242     -0.0003
    184  CZ        27.3050    6.7040   30.0550 C.ar  242  PHE242     -0.0000
@<TRIPOS>BOND
     1    48    47    2
     2    47    46    1
     3    39    38    2
     4    46    45    1
     5    46    49    1
     6    38    45   am
     7    38    37    1
     8    49    50    1
     9    40    37    1
    10    40    41    1
    11    51    50    1
    12    51    52    1
    13    37    36    1
    14    54    53    1
    15   104   103    2
    16    41    42    1
    17    43    42   ar
    18    52    53    2
    19   105   103   am
    20    53    55    1
    21   103   102    1
    22    42    44   ar
    23   102    99    1
    24   101   100    2
    25   114   112   ar
    26   114   115   ar
    27    99   100    1
    28    99    98    1
    29   112   111   ar
    30   100   106   am
    31   106   107    1
    32   115   113   ar
    33   107   108    1
    34   107   110    1
    35     5     6    1
    36    88    87    2
    37   111   113   ar
    38   111   110    1
    39     6     7    1
    40   109   108    2
    41    95    94    1
    42    95    96    1
    43    97    96    2
    44    87    94   am
    45    87    86    1
    46    89    90    1
    47    89    86    1
    48     1     2    1
    49    90    91    1
    50     3     2    1
    51     3     4    2
    52     7     8    2
    53     7     9   am
    54    86    85    1
    55    93    91   ar
    56    91    92   ar
    57     9    10    1
    58    73    71    1
    59    72    71    1
    60    10    11    1
    61    77    76    2
    62    78    79    1
    63    78    75    1
    64    71    68    1
    65    79    80    1
    66    74    75    1
    67    74    69   am
    68    76    75    1
    69    68    69    1
    70    68    67    1
    71    11    12    2
    72    11    13   am
    73    33    34    1
    74    33    32    1
    75    34    35    2
    76    69    70    2
    77    80    81    1
    78    81    82    2
    79    82    84    1
    80    82    83    1
    81    13    14    1
    82    67    58   am
    83    59    58    2
    84    32    26   am
    85    58    57    1
    86    56    57    1
    87    18    19    1
    88    18    17    1
    89    14    15    1
    90    14    17    1
    91   125   124    1
    92    26    27    2
    93    26    25    1
    94    57    60    1
    95    19    20    1
    96    15    24   am
    97    15    16    2
    98    24    25    1
    99   126   124    1
   100    60    61    1
   101   124   121    1
   102    20    21    2
   103    25    28    1
   104    28    29    1
   105    62    61   ar
   106    62    64   ar
   107    61    63   ar
   108   121   120    1
   109   121   122    1
   110    21    23    1
   111    21    22    1
   112   130   129    2
   113   120   118   am
   114    29    30    1
   115    64    66   ar
   116   116   117    1
   117   122   127   am
   118   122   123    2
   119    63    65   ar
   120   127   128    1
   121   173   171    1
   122   129   128    1
   123   118   117    1
   124   118   119    2
   125    30    31    1
   126    66    65   ar
   127   128   131    1
   128   171   172    1
   129   171   170    2
   130   132   131    1
   131   131   133    1
   132   170   169    1
   133   162   161   ar
   134   162   160   ar
   135   161   159   ar
   136   167   164    1
   137   167   168    1
   138   166   165    2
   139   169   168    1
   140   177   176    2
   141   176   175    1
   142   165   164    1
   143   159   157   ar
   144   160   158   ar
   145   164   163    1
   146   134   135    1
   147   178   175    1
   148   178   179    1
   149   157   158   ar
   150   157   156    1
   151   137   136    2
   152   175   174    1
   153   156   153    1
   154   181   179   ar
   155   181   183   ar
   156   179   180   ar
   157   136   135    1
   158   136   139   am
   159   135   138    1
   160   183   184   ar
   161   140   139    1
   162   140   141    1
   163   140   143    1
   164   180   182   ar
   165   153   152    1
   166   153   154    1
   167   152   146   am
   168   142   141    2
   169   141   144   am
   170   155   154    2
   171   184   182   ar
   172   144   145    1
   173   146   145    1
   174   146   147    2
   175   145   148    1
   176   148   149    1
   177   150   149    2
   178   149   151   am
