@<TRIPOS>MOLECULE
tmp/1dimA00.pdb
 196 187 0 0 0
SMALL
GASTEIGER

@<TRIPOS>ATOM
      1  N         32.6110   51.0970   46.2120 N.3    36  ARG36      -0.1231
      2  CA        33.9130   50.5990   45.8190 C.3    36  ARG36       0.1694
      3  C         34.1570   49.1890   46.3410 C.2    36  ARG36       0.2591
      4  O         33.4120   48.6830   47.1820 O.2    36  ARG36      -0.2718
      5  CB        34.9900   51.5060   46.4060 C.3    36  ARG36       0.0321
      6  CG        35.1940   52.8330   45.6900 C.3    36  ARG36       0.0489
      7  CD        36.2510   52.6940   44.6070 C.3    36  ARG36       0.2205
      8  NE        37.5450   53.0340   45.1370 N.pl3  36  ARG36      -0.0865
      9  CZ        38.7110   52.4940   44.8200 C.cat  36  ARG36       0.5346
     10  NH1       38.8580   51.5170   43.9330 N.pl3  36  ARG36       0.1354
     11  NH2       39.7700   52.9980   45.4170 N.pl3  36  ARG36       0.1354
     12  N         35.2080   48.5680   45.8040 N.am   37  ILE37      -0.1980
     13  CA        35.7020   47.2650   46.2340 C.3    37  ILE37       0.1595
     14  C         34.6730   46.1410   46.2380 C.2    37  ILE37       0.2287
     15  O         34.3080   45.6200   47.2920 O.2    37  ILE37      -0.2864
     16  CB        36.3460   47.3800   47.6570 C.3    37  ILE37       0.0276
     17  CG1       36.9460   48.7830   47.9020 C.3    37  ILE37       0.0022
     18  CG2       37.4150   46.3260   47.8220 C.3    37  ILE37       0.0022
     19  CD1       38.0840   49.1940   46.9650 C.3    37  ILE37       0.0001
     20  N         30.4600   53.8410   50.4720 N.3    55  ARG55      -0.1245
     21  CA        31.1750   55.0450   50.9170 C.3    55  ARG55       0.1563
     22  C         30.1730   56.1960   50.8160 C.2    55  ARG55       0.2260
     23  O         30.0710   56.9120   49.8180 O.2    55  ARG55      -0.2867
     24  CB        32.4300   55.2570   50.0560 C.3    55  ARG55       0.0307
     25  CG        33.3430   54.0310   50.0460 C.3    55  ARG55       0.0489
     26  CD        34.7490   54.3120   49.5040 C.3    55  ARG55       0.2205
     27  NE        35.6100   53.1390   49.7210 N.pl3  55  ARG55      -0.0865
     28  CZ        36.9380   53.1250   49.6090 C.cat  55  ARG55       0.5346
     29  NH1       37.5960   54.2220   49.2680 N.pl3  55  ARG55       0.1354
     30  NH2       37.6080   52.0120   49.8770 N.pl3  55  ARG55       0.1354
     31  N         39.2740   56.8390   50.9810 N.3    61  ASP61      -0.1225
     32  CA        39.4450   55.6450   51.7940 C.3    61  ASP61       0.1805
     33  C         39.1430   55.9240   53.2570 C.2    61  ASP61       0.2597
     34  O         38.5200   55.1070   53.9210 O.2    61  ASP61      -0.2718
     35  CB        40.8800   55.1250   51.6770 C.3    61  ASP61       0.1424
     36  CG        41.2550   54.7190   50.2550 C.2    61  ASP61       0.3668
     37  OD1       40.3550   54.4650   49.4300 O.co2  61  ASP61      -0.2456
     38  OD2       42.4640   54.6200   49.9860 O.co2  61  ASP61      -0.2456
     39  N         39.6540   57.0370   53.7820 N.am   62  GLN62      -0.1979
     40  CA        39.4060   57.3740   55.1830 C.3    62  GLN62       0.1601
     41  C         38.1370   58.2160   55.2520 C.2    62  GLN62       0.2287
     42  O         38.1770   59.4480   55.2070 O.2    62  GLN62      -0.2864
     43  CB        40.5980   58.1140   55.7920 C.3    62  GLN62       0.0394
     44  CG        41.8450   57.2440   55.9920 C.3    62  GLN62       0.0908
     45  CD        42.5820   56.9890   54.7000 C.2    62  GLN62       0.2608
     46  OE1       42.9690   57.9270   54.0060 O.2    62  GLN62      -0.2717
     47  NE2       42.7270   55.7350   54.3370 N.am   62  GLN62      -0.0878
     48  N         35.8240   48.2510   55.7030 N.3    98  MET98      -0.1230
     49  CA        36.1680   48.3110   54.2820 C.3    98  MET98       0.1702
     50  C         36.9650   47.1560   53.6920 C.2    98  MET98       0.2592
     51  O         37.5140   46.3220   54.4130 O.2    98  MET98      -0.2718
     52  CB        36.9250   49.6100   54.0130 C.3    98  MET98       0.0401
     53  CG        38.2560   49.6900   54.7270 C.3    98  MET98       0.0596
     54  SD        38.9560   51.3750   54.8150 S.3    98  MET98      -0.1393
     55  CE        38.9530   51.8600   53.0210 C.3    98  MET98       0.0692
     56  N         36.9770   47.1340   52.3570 N.am   99  ASP99      -0.1974
     57  CA        37.7120   46.1690   51.5370 C.3    99  ASP99       0.1709
     58  C         37.2980   44.7310   51.7630 C.2    99  ASP99       0.2293
     59  O         38.0740   43.9240   52.2720 O.2    99  ASP99      -0.2864
     60  CB        39.2130   46.3220   51.7860 C.3    99  ASP99       0.1436
     61  CG        39.7810   47.6050   51.2140 C.2    99  ASP99       0.3671
     62  OD1       39.0060   48.5110   50.8060 O.co2  99  ASP99      -0.2456
     63  OD2       41.0250   47.6890   51.1710 O.co2  99  ASP99      -0.2456
     64  N         38.1660   50.3890   61.1650 N.3   120  TRP120     -0.1241
     65  CA        38.8970   51.4960   61.7740 C.3   120  TRP120      0.1605
     66  C         37.8860   52.5320   62.2640 C.2   120  TRP120      0.2264
     67  O         36.7280   52.5300   61.8410 O.2   120  TRP120     -0.2867
     68  CB        39.8450   52.1510   60.7670 C.3   120  TRP120      0.0550
     69  CG        41.0410   51.3220   60.4230 C.ar  120  TRP120      0.0003
     70  CD1       42.2610   51.3460   61.0390 C.ar  120  TRP120      0.0946
     71  CD2       41.1610   50.4060   59.3280 C.ar  120  TRP120      0.0152
     72  NE1       43.1360   50.5160   60.3860 N.ar  120  TRP120     -0.2442
     73  CE2       42.4880   49.9250   59.3330 C.ar  120  TRP120      0.0810
     74  CE3       40.2760   49.9530   58.3390 C.ar  120  TRP120      0.0012
     75  CZ2       42.9560   49.0050   58.3800 C.ar  120  TRP120      0.0191
     76  CZ3       40.7410   49.0420   57.3930 C.ar  120  TRP120      0.0001
     77  CH2       42.0760   48.5790   57.4240 C.ar  120  TRP120      0.0015
     78  N         46.2470   56.6690   55.7230 N.3   126  THR126     -0.1203
     79  CA        46.2030   55.3630   55.0800 C.3   126  THR126      0.1994
     80  C         46.7250   54.2940   56.0620 C.2   126  THR126      0.2618
     81  O         47.6540   54.5470   56.8330 O.2   126  THR126     -0.2717
     82  CB        46.9810   55.3900   53.7380 C.3   126  THR126      0.1784
     83  OG1       46.6800   54.2150   52.9780 O.3   126  THR126     -0.2211
     84  CG2       48.4810   55.4760   53.9660 C.3   126  THR126      0.0376
     85  N         46.1490   53.0980   56.0330 N.am  127  TRP127     -0.1961
     86  CA        46.5490   52.0770   56.9900 C.3   127  TRP127      0.1771
     87  C         48.0460   51.7180   57.0590 C.2   127  TRP127      0.2620
     88  O         48.5610   51.3560   58.1330 O.2   127  TRP127     -0.2715
     89  CB        45.6540   50.8380   56.8670 C.3   127  TRP127      0.0590
     90  CG        45.9390   49.9330   55.6980 C.ar  127  TRP127      0.0006
     91  CD1       45.9580   50.2620   54.3630 C.ar  127  TRP127      0.0946
     92  CD2       46.2090   48.5300   55.7710 C.ar  127  TRP127      0.0152
     93  NE1       46.2210   49.1390   53.6080 N.ar  127  TRP127     -0.2442
     94  CE2       46.3780   48.0650   54.4470 C.ar  127  TRP127      0.0810
     95  CE3       46.3220   47.6190   56.8320 C.ar  127  TRP127      0.0012
     96  CZ2       46.6580   46.7240   54.1600 C.ar  127  TRP127      0.0191
     97  CZ3       46.5960   46.2970   56.5510 C.ar  127  TRP127      0.0001
     98  CH2       46.7620   45.8580   55.2240 C.ar  127  TRP127      0.0015
     99  N         48.7500   51.8840   55.9390 N.am  128  GLY128     -0.1954
    100  CA        50.1670   51.5730   55.9000 C.3   128  GLY128      0.1869
    101  C         51.0140   52.5450   56.6990 C.2   128  GLY128      0.2309
    102  O         52.2040   52.3120   56.9000 O.2   128  GLY128     -0.2863
    103  N         44.5730   42.5990   56.5980 N.3   174  LEU174     -0.1245
    104  CA        43.3660   42.7830   55.8010 C.3   174  LEU174      0.1561
    105  C         43.2530   41.6090   54.8280 C.2   174  LEU174      0.2260
    106  O         44.2520   40.9610   54.5260 O.2   174  LEU174     -0.2867
    107  CB        43.5130   44.0620   54.9720 C.3   174  LEU174      0.0270
    108  CG        42.3770   45.0650   54.8450 C.3   174  LEU174      0.0019
    109  CD1       42.7230   46.0900   53.7580 C.3   174  LEU174      0.0001
    110  CD2       41.0660   44.3860   54.5810 C.3   174  LEU174      0.0001
    111  N         46.8030   40.5360   53.4220 N.3   193  GLN193     -0.1245
    112  CA        47.8220   41.5470   53.2230 C.3   193  GLN193      0.1566
    113  C         48.1600   41.9440   54.6560 C.2   193  GLN193      0.2260
    114  O         47.2800   41.9350   55.5210 O.2   193  GLN193     -0.2867
    115  CB        47.2500   42.8070   52.5800 C.3   193  GLN193      0.0367
    116  CG        46.1660   42.6450   51.5600 C.3   193  GLN193      0.0905
    117  CD        45.6370   43.9960   51.1220 C.2   193  GLN193      0.2608
    118  OE1       44.4240   44.2170   51.0470 O.2   193  GLN193     -0.2717
    119  NE2       46.5450   44.9210   50.8610 N.am  193  GLN193     -0.0878
    120  N         55.2210   45.7490   53.8230 N.3   204  LEU204     -0.1245
    121  CA        54.0760   44.8900   53.5180 C.3   204  LEU204      0.1561
    122  C         54.4840   43.4750   53.1860 C.2   204  LEU204      0.2260
    123  O         55.5400   43.2400   52.5980 O.2   204  LEU204     -0.2867
    124  CB        53.3240   45.3900   52.2680 C.3   204  LEU204      0.0270
    125  CG        52.5100   46.6790   52.1490 C.3   204  LEU204      0.0019
    126  CD1       51.5550   46.8030   53.3210 C.3   204  LEU204      0.0001
    127  CD2       53.4150   47.8680   52.0560 C.3   204  LEU204      0.0001
    128  N         52.1500   45.1960   45.9110 N.3   228  GLY228     -0.1210
    129  CA        50.9840   46.0330   46.1410 C.3   228  GLY228      0.1956
    130  C         49.9740   45.3590   47.0500 C.2   228  GLY228      0.2613
    131  O         48.8090   45.7700   47.1100 O.2   228  GLY228     -0.2717
    132  N         50.4350   44.2860   47.6900 N.am  229  SER229     -0.1938
    133  CA        49.7370   43.4400   48.6670 C.3   229  SER229      0.2055
    134  C         48.3630   42.8250   48.3890 C.2   229  SER229      0.2642
    135  O         48.0960   41.7100   48.8420 O.2   229  SER229     -0.2714
    136  CB        49.8000   44.0530   50.0710 C.3   229  SER229      0.2130
    137  OG        49.1560   45.3060   50.1570 O.3   229  SER229     -0.2179
    138  N         47.4710   43.5290   47.6940 N.am  230  GLU230     -0.1976
    139  CA        46.1820   42.9240   47.3830 C.3   230  GLU230      0.1602
    140  C         46.4810   41.6790   46.5460 C.2   230  GLU230      0.2287
    141  O         47.3000   41.7180   45.6120 O.2   230  GLU230     -0.2864
    142  CB        45.2910   43.9040   46.6320 C.3   230  GLU230      0.0415
    143  CG        44.7530   45.0120   47.5450 C.3   230  GLU230      0.1163
    144  CD        44.1990   46.1970   46.7830 C.2   230  GLU230      0.3649
    145  OE1       44.6480   46.4260   45.6380 O.co2 230  GLU230     -0.2457
    146  OE2       43.3150   46.9010   47.3250 O.co2 230  GLU230     -0.2457
    147  N         48.9290   42.2580   43.3210 N.3   245  ARG245     -0.1245
    148  CA        48.9270   43.5850   42.7360 C.3   245  ARG245      0.1563
    149  C         50.3460   44.1210   42.8230 C.2   245  ARG245      0.2260
    150  O         51.0430   43.8990   43.8200 O.2   245  ARG245     -0.2867
    151  CB        48.0000   44.5160   43.5430 C.3   245  ARG245      0.0307
    152  CG        48.1890   45.9890   43.2390 C.3   245  ARG245      0.0489
    153  CD        47.2560   46.8470   44.0610 C.3   245  ARG245      0.2205
    154  NE        47.5280   48.2790   43.8870 N.pl3 245  ARG245     -0.0865
    155  CZ        46.7090   49.2550   44.2760 C.cat 245  ARG245      0.5346
    156  NH1       45.5630   48.9590   44.8510 N.pl3 245  ARG245      0.1354
    157  NH2       47.0450   50.5290   44.1100 N.pl3 245  ARG245      0.1354
    158  N         45.6060   56.6690   37.6840 N.3   306  TYR306     -0.1241
    159  CA        44.5430   56.1930   38.5570 C.3   306  TYR306      0.1605
    160  C         43.1990   55.9320   37.8890 C.2   306  TYR306      0.2264
    161  O         42.2710   55.4600   38.5580 O.2   306  TYR306     -0.2867
    162  CB        44.3540   57.1440   39.7390 C.3   306  TYR306      0.0534
    163  CG        45.2110   56.7890   40.9320 C.ar  306  TYR306     -0.0201
    164  CD1       45.1040   55.5310   41.5330 C.ar  306  TYR306     -0.0009
    165  CD2       46.1620   57.6860   41.4290 C.ar  306  TYR306     -0.0009
    166  CE1       45.9200   55.1730   42.5950 C.ar  306  TYR306      0.0417
    167  CE2       46.9860   57.3390   42.4890 C.ar  306  TYR306      0.0417
    168  CZ        46.8620   56.0770   43.0680 C.ar  306  TYR306      0.1957
    169  OH        47.6760   55.7000   44.1190 O.3   306  TYR306     -0.2866
    170  N         42.6330   53.7290   35.6170 N.3   308  ARG308     -0.1245
    171  CA        42.5350   52.2740   35.4430 C.3   308  ARG308      0.1563
    172  C         41.4900   51.8130   34.4160 C.2   308  ARG308      0.2260
    173  O         40.5380   51.0890   34.7350 O.2   308  ARG308     -0.2867
    174  CB        42.2380   51.6620   36.8170 C.3   308  ARG308      0.0307
    175  CG        43.3840   51.8200   37.7850 C.3   308  ARG308      0.0489
    176  CD        42.8850   51.8580   39.1910 C.3   308  ARG308      0.2205
    177  NE        43.9830   51.7060   40.1370 N.pl3 308  ARG308     -0.0865
    178  CZ        43.8320   51.7420   41.4540 C.cat 308  ARG308      0.5346
    179  NH1       42.6300   51.9420   41.9710 N.pl3 308  ARG308      0.1354
    180  NH2       44.8690   51.5070   42.2440 N.pl3 308  ARG308      0.1354
    181  N         38.3960   56.6130   42.2570 N.3   338  GLY338     -0.1225
    182  CA        38.4130   55.2410   42.7320 C.3   338  GLY338      0.1811
    183  C         37.8480   54.3920   41.6210 C.2   338  GLY338      0.2280
    184  O         36.6580   54.4710   41.3340 O.2   338  GLY338     -0.2866
    185  N         38.5800   48.1050   40.2640 N.3   341  TYR341     -0.1241
    186  CA        38.4490   46.8260   40.9670 C.3   341  TYR341      0.1605
    187  C         37.3930   45.8800   40.3730 C.2   341  TYR341      0.2264
    188  O         36.4170   46.3160   39.7430 O.2   341  TYR341     -0.2867
    189  CB        38.1740   47.0520   42.4600 C.3   341  TYR341      0.0534
    190  CG        39.3780   47.4820   43.2640 C.ar  341  TYR341     -0.0201
    191  CD1       40.3350   48.3640   42.7300 C.ar  341  TYR341     -0.0009
    192  CD2       39.5750   47.0050   44.5600 C.ar  341  TYR341     -0.0009
    193  CE1       41.4590   48.7560   43.4700 C.ar  341  TYR341      0.0417
    194  CE2       40.6930   47.3930   45.3050 C.ar  341  TYR341      0.0417
    195  CZ        41.6250   48.2630   44.7490 C.ar  341  TYR341      0.1957
    196  OH        42.7270   48.6220   45.4750 O.3   341  TYR341     -0.2866
@<TRIPOS>BOND
     1   172   173    2
     2   172   171    1
     3   171   170    1
     4   171   174    1
     5   174   175    1
     6   158   159    1
     7   175   176    1
     8   160   159    1
     9   160   161    2
    10   159   162    1
    11   176   177    1
    12   162   163    1
    13   188   187    2
    14   177   178    2
    15   185   186    1
    16   187   186    1
    17   163   165   ar
    18   163   164   ar
    19   186   189    1
    20   184   183    2
    21   165   167   ar
    22   178   179    1
    23   178   180    1
    24   164   166   ar
    25   183   182    1
    26   181   182    1
    27   189   190    1
    28   167   168   ar
    29   166   168   ar
    30   191   190   ar
    31   191   193   ar
    32   148   149    1
    33   148   147    1
    34   148   151    1
    35   149   150    2
    36   168   169    1
    37   152   151    1
    38   152   153    1
    39   190   192   ar
    40   193   195   ar
    41   154   153    1
    42   154   155    2
    43    10     9    1
    44   157   155    1
    45   155   156    1
    46   192   194   ar
    47     7     8    1
    48     7     6    1
    49   195   194   ar
    50   195   196    1
    51     9     8    2
    52     9    11    1
    53   141   140    2
    54   145   144   ar
    55     6     5    1
    56    12    13    1
    57    12     3   am
    58     2     1    1
    59     2     3    1
    60     2     5    1
    61   128   129    1
    62   129   130    1
    63    13    14    1
    64    13    16    1
    65    14    15    2
    66     3     4    2
    67   140   139    1
    68   142   139    1
    69   142   143    1
    70   144   146   ar
    71   144   143    1
    72    19    17    1
    73   130   131    2
    74   130   132   am
    75   139   138    1
    76    16    18    1
    77    16    17    1
    78   132   133    1
    79   138   134   am
    80   134   133    1
    81   134   135    2
    82   133   136    1
    83    29    28    1
    84    37    36   ar
    85    26    27    1
    86    26    25    1
    87    28    27    2
    88    28    30    1
    89    23    22    2
    90    38    36   ar
    91    25    24    1
    92    24    21    1
    93   136   137    1
    94    36    35    1
    95    20    21    1
    96    62    61   ar
    97    22    21    1
    98   119   117   am
    99    31    32    1
   100   118   117    2
   101   117   116    1
   102    63    61   ar
   103    61    60    1
   104    57    58    1
   105    57    60    1
   106    57    56    1
   107   116   115    1
   108    35    32    1
   109    58    59    2
   110    32    33    1
   111   127   125    1
   112   125   124    1
   113   125   126    1
   114   124   121    1
   115    56    50   am
   116   115   112    1
   117   123   122    2
   118    83    82    1
   119    55    54    1
   120   122   121    1
   121   112   111    1
   122   112   113    1
   123    33    39   am
   124    33    34    2
   125   121   120    1
   126    93    91   ar
   127    93    94   ar
   128    50    49    1
   129    50    51    2
   130    82    84    1
   131    82    79    1
   132   109   108    1
   133    39    40    1
   134    46    45    2
   135    52    49    1
   136    52    53    1
   137    96    94   ar
   138    96    98   ar
   139    49    48    1
   140    47    45   am
   141    91    90   ar
   142    94    92   ar
   143   106   105    2
   144   110   108    1
   145   113   114    2
   146    45    44    1
   147    53    54    1
   148   105   104    1
   149   108   107    1
   150   107   104    1
   151    79    78    1
   152    79    80    1
   153    40    41    1
   154    40    43    1
   155    42    41    2
   156    98    97   ar
   157    90    92   ar
   158    90    89    1
   159    92    95   ar
   160    43    44    1
   161   104   103    1
   162   100    99    1
   163   100   101    1
   164    99    87   am
   165    85    80   am
   166    85    86    1
   167    80    81    2
   168    97    95   ar
   169   101   102    2
   170    89    86    1
   171    86    87    1
   172    87    88    2
   173    76    77   ar
   174    76    74   ar
   175    77    75   ar
   176    74    71   ar
   177    75    73   ar
   178    71    73   ar
   179    71    69   ar
   180    73    72   ar
   181    72    70   ar
   182    69    68    1
   183    69    70   ar
   184    68    65    1
   185    64    65    1
   186    65    66    1
   187    67    66    2
