@<TRIPOS>MOLECULE
tmp/1dioA00.pdb
 183 172 0 0 0
SMALL
GASTEIGER

@<TRIPOS>ATOM
      1  N         76.9860   -2.9490  163.3020 N.3   172  THR172     -0.1203
      2  CA        78.2000   -3.0000  162.4620 C.3   172  THR172      0.1994
      3  C         78.4340   -4.4420  162.0200 C.2   172  THR172      0.2618
      4  O         77.5200   -5.2560  162.1710 O.2   172  THR172     -0.2717
      5  CB        79.3810   -2.4060  163.1990 C.3   172  THR172      0.1784
      6  OG1       80.5740   -2.3330  162.3700 O.3   172  THR172     -0.2211
      7  CG2       79.7240   -3.2130  164.4480 C.3   172  THR172      0.0376
      8  N         79.5490   -4.8080  161.4090 N.am  173  VAL173     -0.1965
      9  CA        79.5670   -6.0410  160.6170 C.3   173  VAL173      0.1727
     10  C         80.8770   -6.7280  161.0200 C.2   173  VAL173      0.2616
     11  O         81.8600   -6.0760  161.3530 O.2   173  VAL173     -0.2715
     12  CB        79.5200   -6.0090  159.0780 C.3   173  VAL173      0.0290
     13  CG1       78.1030   -5.8980  158.5340 C.3   173  VAL173      0.0023
     14  CG2       80.3350   -4.8960  158.4450 C.3   173  VAL173      0.0023
     15  N         80.7400   -8.0430  161.1060 N.am  174  ALA174     -0.1977
     16  CA        81.9810   -8.8440  161.2740 C.3   174  ALA174      0.1597
     17  C         82.6710   -8.9380  159.9070 C.2   174  ALA174      0.2287
     18  O         83.8690   -8.7140  159.7530 O.2   174  ALA174     -0.2864
     19  CB        81.5500  -10.1740  161.8550 C.3   174  ALA174      0.0319
     20  N         82.4570   -7.2310  156.1320 N.3   176  ALA176     -0.1245
     21  CA        82.0440   -5.8950  155.6580 C.3   176  ALA176      0.1562
     22  C         80.9640   -5.9300  154.6100 C.2   176  ALA176      0.2260
     23  O         79.9140   -5.2440  154.6790 O.2   176  ALA176     -0.2867
     24  CB        83.3000   -5.1330  155.2910 C.3   176  ALA176      0.0290
     25  N         77.9990    1.2460  161.1070 N.3   202  SER202     -0.1202
     26  CA        79.2390    1.9910  161.1840 C.3   202  SER202      0.2020
     27  C         80.3320    1.3850  160.3410 C.2   202  SER202      0.2619
     28  O         80.7350    0.2670  160.6310 O.2   202  SER202     -0.2717
     29  CB        79.6750    2.0210  162.6790 C.3   202  SER202      0.2103
     30  OG        78.5160    2.4900  163.3760 O.3   202  SER202     -0.2182
     31  N         80.7510    2.0720  159.2680 N.am  203  LEU203     -0.1965
     32  CA        81.5870    1.4430  158.2380 C.3   203  LEU203      0.1728
     33  C         82.7290    2.3660  157.9190 C.2   203  LEU203      0.2616
     34  O         82.8680    3.4410  158.5230 O.2   203  LEU203     -0.2715
     35  CB        80.8050    1.0500  156.9820 C.3   203  LEU203      0.0311
     36  CG        79.5030    0.2810  157.1460 C.3   203  LEU203      0.0022
     37  CD1       78.6400    0.1420  155.8980 C.3   203  LEU203      0.0001
     38  CD2       79.7860   -1.1150  157.6900 C.3   203  LEU203      0.0001
     39  N         83.5930    1.9610  156.9700 N.am  204  GLU204     -0.1963
     40  CA        84.4290    2.9420  156.2430 C.3   204  GLU204      0.1733
     41  C         83.6570    4.1510  155.7330 C.2   204  GLU204      0.2616
     42  O         82.4690    4.0350  155.4220 O.2   204  GLU204     -0.2715
     43  CB        85.1040    2.1450  155.1080 C.3   204  GLU204      0.0429
     44  CG        86.1880    2.9700  154.4090 C.3   204  GLU204      0.1163
     45  CD        85.5580    3.8730  153.3310 C.2   204  GLU204      0.3649
     46  OE1       84.4390    3.6320  152.8170 O.co2 204  GLU204     -0.2457
     47  OE2       86.2220    4.9070  153.1070 O.co2 204  GLU204     -0.2457
     48  N         84.2380    5.3530  155.6610 N.am  205  GLU205     -0.1977
     49  CA        83.4120    6.5670  155.4220 C.3   205  GLU205      0.1602
     50  C         82.6600    6.5760  154.1110 C.2   205  GLU205      0.2287
     51  O         81.4310    6.7130  154.1110 O.2   205  GLU205     -0.2864
     52  CB        84.2030    7.8820  155.5580 C.3   205  GLU205      0.0415
     53  CG        84.9140    8.1320  156.8670 C.3   205  GLU205      0.1163
     54  CD        84.1060    8.2270  158.1550 C.2   205  GLU205      0.3649
     55  OE1       82.8640    8.1540  158.2090 O.co2 205  GLU205     -0.2457
     56  OE2       84.7620    8.4520  159.2130 O.co2 205  GLU205     -0.2457
     57  N         79.8090    7.5160  163.6090 N.3   222  THR222     -0.1218
     58  CA        81.2180    7.1650  163.6770 C.3   222  THR222      0.1862
     59  C         81.9880    7.8880  162.5840 C.2   222  THR222      0.2287
     60  O         82.9330    7.3760  161.9490 O.2   222  THR222     -0.2866
     61  CB        81.3880    5.6230  163.4880 C.3   222  THR222      0.1770
     62  OG1       80.5780    5.2170  162.3550 O.3   222  THR222     -0.2211
     63  CG2       80.7480    4.8910  164.6910 C.3   222  THR222      0.0375
     64  N         84.7500    9.9640  161.9780 N.3   224  SER224     -0.1217
     65  CA        85.8070   10.1150  162.9770 C.3   224  SER224      0.1889
     66  C         86.5880   11.3940  162.8090 C.2   224  SER224      0.2288
     67  O         86.8940   11.8270  161.6860 O.2   224  SER224     -0.2866
     68  CB        86.6330    8.8470  162.7920 C.3   224  SER224      0.2089
     69  OG        87.2780    8.9490  161.5270 O.3   224  SER224     -0.2183
     70  N         90.2020   13.3730  164.7190 N.3   226  TYR226     -0.1241
     71  CA        91.3830   12.9680  165.4080 C.3   226  TYR226      0.1605
     72  C         92.1230   14.2540  165.7960 C.2   226  TYR226      0.2264
     73  O         91.9000   15.2880  165.1530 O.2   226  TYR226     -0.2867
     74  CB        92.3510   12.0640  164.6260 C.3   226  TYR226      0.0534
     75  CG        91.7010   10.7520  164.2220 C.ar  226  TYR226     -0.0201
     76  CD1       90.9850   10.7070  163.0300 C.ar  226  TYR226     -0.0009
     77  CD2       91.7620    9.5970  164.9910 C.ar  226  TYR226     -0.0009
     78  CE1       90.3480    9.5570  162.5890 C.ar  226  TYR226      0.0417
     79  CE2       91.1390    8.4190  164.5720 C.ar  226  TYR226      0.0417
     80  CZ        90.4410    8.4140  163.3710 C.ar  226  TYR226      0.1957
     81  OH        89.7880    7.2950  162.9250 O.3   226  TYR226     -0.2866
     82  N         96.4490    8.9420  159.1660 N.3   234  ASP234     -0.1225
     83  CA        96.2900    7.4800  159.2040 C.3   234  ASP234      0.1805
     84  C         94.8220    7.1260  159.2950 C.2   234  ASP234      0.2598
     85  O         94.4790    5.9900  158.9900 O.2   234  ASP234     -0.2718
     86  CB        97.0490    6.8080  160.3460 C.3   234  ASP234      0.1424
     87  CG        98.4500    6.5340  159.9290 C.2   234  ASP234      0.3668
     88  OD1       98.6950    6.4710  158.6920 O.co2 234  ASP234     -0.2456
     89  OD2       99.3620    6.3330  160.7310 O.co2 234  ASP234     -0.2456
     90  N         93.9590    8.0670  159.6940 N.am  235  GLY235     -0.1957
     91  CA        92.5300    7.8590  159.6530 C.3   235  GLY235      0.1869
     92  C         91.9160    8.2310  158.3050 C.2   235  GLY235      0.2309
     93  O         90.6900    8.0800  158.1390 O.2   235  GLY235     -0.2863
     94  N         82.7490   11.4960  165.9160 N.3   259  THR259     -0.1274
     95  CA        83.1030   10.6180  167.0170 C.3   259  THR259      0.1548
     96  C         84.5400   10.9960  167.3020 C.3   259  THR259      0.2036
     97  O         85.2300   11.0590  166.2820 O.3   259  THR259     -0.2187
     98  CB        83.0330    9.1260  166.6150 C.3   259  THR259      0.1721
     99  OG1       81.6560    8.8170  166.4500 O.3   259  THR259     -0.2215
    100  CG2       83.6540    8.1930  167.6280 C.3   259  THR259      0.0371
    101  N         92.7100    7.9100  171.4910 N.3   264  SER264     -0.1217
    102  CA        92.9260    7.7190  170.0470 C.3   264  SER264      0.1889
    103  C         94.3210    7.9270  169.5230 C.2   264  SER264      0.2288
    104  O         94.9680    7.1180  168.8900 O.2   264  SER264     -0.2866
    105  CB        92.1350    8.8530  169.3020 C.3   264  SER264      0.2089
    106  OG        90.8570    8.2610  169.2430 O.3   264  SER264     -0.2183
    107  N         96.8440    5.6180  171.0350 N.3   267  GLN267     -0.1231
    108  CA        96.6190    4.3070  170.4310 C.3   267  GLN267      0.1698
    109  C         97.0270    4.1940  168.9570 C.2   267  GLN267      0.2592
    110  O         97.5860    3.1690  168.5860 O.2   267  GLN267     -0.2718
    111  CB        95.1430    4.0390  170.5260 C.3   267  GLN267      0.0381
    112  CG        94.6570    2.7930  169.8710 C.3   267  GLN267      0.0905
    113  CD        95.0090    1.4420  170.4600 C.2   267  GLN267      0.2608
    114  OE1       94.0610    0.8060  170.9140 O.2   267  GLN267     -0.2717
    115  NE2       96.2500    0.9830  170.3900 N.am  267  GLN267     -0.0878
    116  N         96.8710    5.2870  168.2110 N.am  268  MET268     -0.1979
    117  CA        97.2970    5.3560  166.8260 C.3   268  MET268      0.1605
    118  C         98.6670    5.9400  166.7110 C.2   268  MET268      0.2287
    119  O         99.0580    6.1710  165.5650 O.2   268  MET268     -0.2864
    120  CB        96.3290    6.1490  165.9380 C.3   268  MET268      0.0413
    121  CG        95.0350    5.3890  165.8520 C.3   268  MET268      0.0598
    122  SD        93.7110    6.1130  164.9370 S.3   268  MET268     -0.1393
    123  CE        94.3690    6.0100  163.2620 C.3   268  MET268      0.0692
    124  N         85.4310    6.4390  174.0740 N.3   300  VAL300     -0.1231
    125  CA        84.8280    5.4930  173.1710 C.3   300  VAL300      0.1692
    126  C         85.6800    4.2440  173.0470 C.2   300  VAL300      0.2593
    127  O         86.0200    3.6020  174.0640 O.2   300  VAL300     -0.2718
    128  CB        84.5380    6.1350  171.7770 C.3   300  VAL300      0.0266
    129  CG1       83.5440    5.2820  170.9910 C.3   300  VAL300      0.0020
    130  CG2       83.9410    7.5320  171.9620 C.3   300  VAL300      0.0020
    131  N         86.1500    3.9020  171.8430 N.am  301  SER301     -0.1938
    132  CA        86.8240    2.6470  171.6040 C.3   301  SER301      0.2055
    133  C         88.1650    2.5560  172.2250 C.2   301  SER301      0.2643
    134  O         88.7490    1.4770  172.2470 O.2   301  SER301     -0.2714
    135  CB        86.9440    2.4040  170.0620 C.3   301  SER301      0.2130
    136  OG        85.5860    2.1670  169.6590 O.3   301  SER301     -0.2179
    137  N         88.8080    3.6150  172.6280 N.am  302  CYS302     -0.1967
    138  CA        90.1410    3.5910  173.2210 C.3   302  CYS302      0.1712
    139  C         90.1740    3.7050  174.7390 C.2   302  CYS302      0.2296
    140  O         91.2300    3.9810  175.3450 O.2   302  CYS302     -0.2864
    141  CB        90.8660    4.7400  172.5080 C.3   302  CYS302      0.0983
    142  SG        91.0750    4.3850  170.7250 S.3   302  CYS302     -0.0798
    143  N         82.0230    0.7430  175.7120 N.3   336  GLN336     -0.1245
    144  CA        83.1900   -0.0630  175.3980 C.3   336  GLN336      0.1566
    145  C         83.7950   -0.6550  176.6630 C.2   336  GLN336      0.2260
    146  O         83.9710    0.0910  177.6420 O.2   336  GLN336     -0.2867
    147  CB        84.2770    0.7780  174.6680 C.3   336  GLN336      0.0367
    148  CG        83.8120    1.2760  173.2810 C.3   336  GLN336      0.0905
    149  CD        83.8430    0.1480  172.2300 C.2   336  GLN336      0.2608
    150  OE1       84.8320    0.0470  171.5070 O.2   336  GLN336     -0.2717
    151  NE2       82.8800   -0.7210  172.1600 N.am  336  GLN336     -0.0878
    152  N         78.8650   -8.8630  170.6580 N.3   372  ASN372     -0.1225
    153  CA        79.0700   -7.4500  170.4740 C.3   372  ASN372      0.1785
    154  C         80.2250   -7.2150  169.5140 C.2   372  ASN372      0.2597
    155  O         81.3600   -7.3990  169.8990 O.2   372  ASN372     -0.2718
    156  CB        79.4130   -6.7200  171.7980 C.3   372  ASN372      0.1169
    157  CG        79.4860   -5.2140  171.5880 C.2   372  ASN372      0.2627
    158  OD1       80.5260   -4.6950  171.2280 O.2   372  ASN372     -0.2716
    159  ND2       78.4260   -4.4670  171.8330 N.am  372  ASN372     -0.0877
    160  N         79.9170   -6.5960  168.3700 N.am  373  MET373     -0.1965
    161  CA        80.9680   -6.4620  167.3500 C.3   373  MET373      0.1736
    162  C         81.7910   -5.2040  167.4720 C.2   373  MET373      0.2616
    163  O         82.7890   -5.0870  166.7490 O.2   373  MET373     -0.2715
    164  CB        80.3730   -6.6140  165.9530 C.3   373  MET373      0.0427
    165  CG        79.9110   -8.0220  165.6380 C.3   373  MET373      0.0599
    166  SD        81.1460   -9.2750  165.9970 S.3   373  MET373     -0.1393
    167  CE        82.6130   -8.6950  165.2750 C.3   373  MET373      0.0692
    168  N         81.5640   -4.4200  168.5220 N.am  374  PHE374     -0.1960
    169  CA        82.5030   -3.3720  168.9290 C.3   374  PHE374      0.1771
    170  C         83.4420   -3.8620  170.0100 C.2   374  PHE374      0.2619
    171  O         84.1590   -3.1040  170.6770 O.2   374  PHE374     -0.2715
    172  CB        81.7570   -2.0790  169.2960 C.3   374  PHE374      0.0574
    173  CG        80.9090   -1.4830  168.1930 C.ar  374  PHE374     -0.0200
    174  CD1       81.4680   -0.6510  167.2140 C.ar  374  PHE374     -0.0042
    175  CD2       79.5690   -1.6890  168.1350 C.ar  374  PHE374     -0.0042
    176  CE1       80.6750   -0.0870  166.2290 C.ar  374  PHE374     -0.0003
    177  CE2       78.7650   -1.1690  167.1310 C.ar  374  PHE374     -0.0003
    178  CZ        79.2980   -0.3370  166.1650 C.ar  374  PHE374     -0.0000
    179  N         83.5770   -5.1690  170.1660 N.am  375  ALA375     -0.1977
    180  CA        84.5100   -5.8480  171.0640 C.3   375  ALA375      0.1597
    181  C         84.0810   -5.6470  172.5300 C.2   375  ALA375      0.2287
    182  O         84.8850   -5.7740  173.4470 O.2   375  ALA375     -0.2864
    183  CB        85.9620   -5.5410  170.8510 C.3   375  ALA375      0.0319
@<TRIPOS>BOND
     1    46    45   ar
     2    47    45   ar
     3    45    44    1
     4    50    51    2
     5    50    49    1
     6    44    43    1
     7    22    23    2
     8    22    21    1
     9    43    40    1
    10    24    21    1
    11    42    41    2
    12    49    52    1
    13    49    48    1
    14    52    53    1
    15    21    20    1
    16    48    41   am
    17    41    40    1
    18    37    36    1
    19    40    39    1
    20    53    54    1
    21    39    33   am
    22    35    36    1
    23    35    32    1
    24    36    38    1
    25    33    32    1
    26    33    34    2
    27    93    92    2
    28    54    55   ar
    29    54    56   ar
    30    32    31    1
    31    92    91    1
    32    14    12    1
    33    13    12    1
    34    88    87   ar
    35    85    84    2
    36    12     9    1
    37    82    83    1
    38    83    84    1
    39    83    86    1
    40    31    27   am
    41    84    90   am
    42    91    90    1
    43    18    17    2
    44    17    16    1
    45    87    86    1
    46    87    89   ar
    47    27    28    2
    48    27    26    1
    49     9    10    1
    50     9     8    1
    51    10    15   am
    52    10    11    2
    53    15    16    1
    54    25    26    1
    55    26    29    1
    56    16    19    1
    57     8     3   am
    58    69    68    1
    59    67    66    2
    60    60    59    2
    61    64    65    1
    62     3     4    2
    63     3     2    1
    64    62    61    1
    65     6     5    1
    66     2     5    1
    67     2     1    1
    68    59    58    1
    69    78    76   ar
    70    78    80   ar
    71    29    30    1
    72    68    65    1
    73    66    65    1
    74    81    80    1
    75    76    75   ar
    76     5     7    1
    77   123   122    1
    78    80    79   ar
    79    61    58    1
    80    61    63    1
    81    57    58    1
    82    75    74    1
    83    75    77   ar
    84    79    77   ar
    85    74    71    1
    86    70    71    1
    87   122   121    1
    88    73    72    2
    89   167   166    1
    90    71    72    1
    91   119   118    2
    92   165   164    1
    93   165   166    1
    94   121   120    1
    95    94    95    1
    96   120   117    1
    97   164   161    1
    98   178   176   ar
    99   178   177   ar
   100   176   174   ar
   101    97    96    1
   102    99    98    1
   103    98    95    1
   104    98   100    1
   105   118   117    1
   106   163   162    2
   107   117   116    1
   108    95    96    1
   109   177   175   ar
   110   174   173   ar
   111   161   162    1
   112   161   160    1
   113   162   168   am
   114   175   173   ar
   115   173   172    1
   116   116   109   am
   117   160   154   am
   118   168   169    1
   119   110   109    2
   120   104   103    2
   121   169   172    1
   122   169   170    1
   123   109   108    1
   124   106   105    1
   125   105   102    1
   126   154   155    2
   127   154   153    1
   128   103   102    1
   129   136   135    1
   130   112   113    1
   131   112   111    1
   132   170   179   am
   133   170   171    2
   134   102   101    1
   135   135   132    1
   136   179   180    1
   137   115   113   am
   138   108   111    1
   139   108   107    1
   140   113   114    2
   141   153   152    1
   142   153   156    1
   143   142   141    1
   144   183   180    1
   145   129   128    1
   146   180   181    1
   147   158   157    2
   148   150   149    2
   149   157   156    1
   150   157   159   am
   151   132   131    1
   152   132   133    1
   153   128   130    1
   154   128   125    1
   155   131   126   am
   156   151   149   am
   157   133   134    2
   158   133   137   am
   159   149   148    1
   160   141   138    1
   161   181   182    2
   162   137   138    1
   163   126   125    1
   164   126   127    2
   165   125   124    1
   166   138   139    1
   167   148   147    1
   168   147   144    1
   169   139   140    2
   170   144   143    1
   171   144   145    1
   172   145   146    2
