@<TRIPOS>MOLECULE
tmp/1dioB00.pdb
 190 181 0 0 0
SMALL
GASTEIGER

@<TRIPOS>ATOM
      1  N        101.7110   -9.5910  170.0980 N.3    34  ILE34      -0.1245
      2  CA       101.3230   -9.0790  171.3880 C.3    34  ILE34       0.1561
      3  C        101.0890  -10.1640  172.4380 C.2    34  ILE34       0.2260
      4  O        100.9910   -9.7960  173.6210 O.2    34  ILE34      -0.2867
      5  CB       100.0590   -8.2430  171.1750 C.3    34  ILE34       0.0252
      6  CG1       99.7540   -7.3500  172.3770 C.3    34  ILE34       0.0019
      7  CG2       98.9770   -9.2340  170.8190 C.3    34  ILE34       0.0019
      8  CD1       98.4350   -6.6350  172.2820 C.3    34  ILE34       0.0001
      9  N        100.2180    2.0600  160.0100 N.3    67  ASP67      -0.1225
     10  CA        98.8270    1.6440  160.0590 C.3    67  ASP67       0.1805
     11  C         98.7080    0.3610  159.2340 C.2    67  ASP67       0.2598
     12  O         99.2170    0.3780  158.1110 O.2    67  ASP67      -0.2718
     13  CB        98.0020    2.7670  159.4350 C.3    67  ASP67       0.1424
     14  CG        96.5450    2.5130  159.5090 C.2    67  ASP67       0.3668
     15  OD1       96.0220    1.7330  158.7140 O.co2  67  ASP67      -0.2456
     16  OD2       95.8500    3.0720  160.3890 O.co2  67  ASP67      -0.2456
     17  N         98.0520   -0.6700  159.7300 N.am   68  VAL68      -0.1966
     18  CA        98.0020   -1.9120  158.9930 C.3    68  VAL68       0.1727
     19  C         97.2440   -1.7920  157.6710 C.2    68  VAL68       0.2616
     20  O         97.6320   -2.4770  156.7250 O.2    68  VAL68      -0.2715
     21  CB        97.4420   -3.0820  159.8200 C.3    68  VAL68       0.0290
     22  CG1       95.9410   -3.0350  159.9360 C.3    68  VAL68       0.0023
     23  CG2       97.8820   -4.4200  159.2260 C.3    68  VAL68       0.0023
     24  N         96.2140   -0.9840  157.5840 N.am   69  ALA69      -0.1963
     25  CA        95.4780   -0.7310  156.3560 C.3    69  ALA69       0.1728
     26  C         96.3690   -0.0690  155.2990 C.2    69  ALA69       0.2616
     27  O         96.2870   -0.5180  154.1490 O.2    69  ALA69      -0.2715
     28  CB        94.2080    0.0870  156.5570 C.3    69  ALA69       0.0334
     29  N         97.2170    0.8780  155.6670 N.am   70  PHE70      -0.1974
     30  CA        98.0800    1.5250  154.6920 C.3    70  PHE70       0.1639
     31  C         99.2380    0.6250  154.2900 C.2    70  PHE70       0.2290
     32  O         99.7040    0.6680  153.1360 O.2    70  PHE70      -0.2864
     33  CB        98.5370    2.9330  155.1730 C.3    70  PHE70       0.0560
     34  CG        97.3820    3.8960  155.0660 C.ar   70  PHE70      -0.0200
     35  CD1       96.4770    4.0220  156.1070 C.ar   70  PHE70      -0.0042
     36  CD2       97.1200    4.6210  153.9060 C.ar   70  PHE70      -0.0042
     37  CE1       95.3800    4.8550  156.0490 C.ar   70  PHE70      -0.0003
     38  CE2       96.0170    5.4450  153.8110 C.ar   70  PHE70      -0.0003
     39  CZ        95.1450    5.5760  154.8770 C.ar   70  PHE70      -0.0000
     40  N        100.8260   -5.9580  161.1720 N.3    88  GLN88      -0.1245
     41  CA       101.6400   -5.2230  162.1570 C.3    88  GLN88       0.1566
     42  C        102.5010   -6.0870  163.0640 C.2    88  GLN88       0.2260
     43  O        102.2240   -7.2570  163.2890 O.2    88  GLN88      -0.2867
     44  CB       100.7210   -4.3990  163.0750 C.3    88  GLN88       0.0367
     45  CG       100.1320   -3.2250  162.3380 C.3    88  GLN88       0.0905
     46  CD        99.1650   -2.3790  163.1290 C.2    88  GLN88       0.2608
     47  OE1       98.2790   -2.8660  163.8430 O.2    88  GLN88      -0.2717
     48  NE2       99.3360   -1.0720  162.9650 N.am   88  GLN88      -0.0878
     49  N        102.5950   -6.2940  166.2000 N.3    90  LYS90      -0.1245
     50  CA       101.7730   -6.7740  167.2950 C.3    90  LYS90       0.1561
     51  C        100.7450   -7.7890  166.8460 C.2    90  LYS90       0.2260
     52  O        100.2500   -8.4860  167.7440 O.2    90  LYS90      -0.2867
     53  CB       101.1490   -5.6100  168.0540 C.3    90  LYS90       0.0271
     54  CG       100.1170   -4.7760  167.3250 C.3    90  LYS90       0.0035
     55  CD        99.7730   -3.5160  168.1090 C.3    90  LYS90       0.0206
     56  CE        98.9790   -2.4940  167.2760 C.3    90  LYS90       0.1093
     57  NZ        97.6390   -2.9830  166.8790 N.3    90  LYS90      -0.1314
     58  N         98.1870   -7.6830  164.3960 N.3    92  THR92      -0.1218
     59  CA        96.9830   -7.2670  163.6730 C.3    92  THR92       0.1862
     60  C         97.1420   -7.4930  162.1670 C.2    92  THR92       0.2287
     61  O         98.2070   -7.2660  161.6370 O.2    92  THR92      -0.2866
     62  CB        96.7390   -5.7770  163.9660 C.3    92  THR92       0.1770
     63  OG1       96.8670   -5.5590  165.3900 O.3    92  THR92      -0.2211
     64  CG2       95.3720   -5.4410  163.4140 C.3    92  THR92       0.0375
     65  N         95.3550   -7.8970  158.0560 N.3    94  VAL94      -0.1245
     66  CA        94.2090   -7.6410  157.1360 C.3    94  VAL94       0.1561
     67  C         94.5110   -8.2240  155.7360 C.2    94  VAL94       0.2260
     68  O         95.6510   -8.3480  155.2480 O.2    94  VAL94      -0.2867
     69  CB        93.8880   -6.1310  157.1260 C.3    94  VAL94       0.0252
     70  CG1       95.0790   -5.3670  156.5510 C.3    94  VAL94       0.0019
     71  CG2       92.6250   -5.7280  156.4070 C.3    94  VAL94       0.0019
     72  N         90.6180    1.8370  154.1200 N.3   103  LEU103     -0.1231
     73  CA        90.0550    1.4260  155.3910 C.3   103  LEU103      0.1693
     74  C         88.9160    0.4600  155.1730 C.2   103  LEU103      0.2593
     75  O         88.1120    0.1590  156.0600 O.2   103  LEU103     -0.2718
     76  CB        89.6320    2.6630  156.1950 C.3   103  LEU103      0.0284
     77  CG        90.8530    3.5010  156.6460 C.3   103  LEU103      0.0019
     78  CD1       90.4540    4.7190  157.4690 C.3   103  LEU103      0.0001
     79  CD2       91.8430    2.6300  157.4280 C.3   103  LEU103      0.0001
     80  N         88.8030   -0.0090  153.9300 N.am  104  SER104     -0.1938
     81  CA        88.0290   -1.1830  153.5820 C.3   104  SER104      0.2055
     82  C         88.9340   -2.4000  153.4420 C.2   104  SER104      0.2643
     83  O         90.1500   -2.2500  153.4570 O.2   104  SER104     -0.2714
     84  CB        87.3520   -1.0090  152.2160 C.3   104  SER104      0.2130
     85  OG        86.1590   -1.7940  152.2480 O.3   104  SER104     -0.2179
     86  N         88.3660   -3.5850  153.2170 N.am  105  ASN105     -0.1971
     87  CA        89.1720   -4.7940  153.0990 C.3   105  ASN105      0.1688
     88  C         88.2630   -5.9760  152.7550 C.2   105  ASN105      0.2292
     89  O         87.0480   -5.8290  152.7530 O.2   105  ASN105     -0.2864
     90  CB        89.9210   -5.1930  154.3790 C.3   105  ASN105      0.1181
     91  CG        88.9480   -5.2900  155.5340 C.2   105  ASN105      0.2629
     92  OD1       89.0530   -4.3780  156.3810 O.2   105  ASN105     -0.2716
     93  ND2       88.0320   -6.2040  155.6630 N.am  105  ASN105     -0.0877
     94  N         89.2700   -8.8750  158.0290 N.3   108  LEU108     -0.1245
     95  CA        90.0650   -8.0990  158.9980 C.3   108  LEU108      0.1561
     96  C         90.2120   -8.8830  160.2880 C.2   108  LEU108      0.2260
     97  O         89.2190   -9.4950  160.6400 O.2   108  LEU108     -0.2867
     98  CB        89.3320   -6.7760  159.3150 C.3   108  LEU108      0.0270
     99  CG        89.9890   -5.9220  160.4080 C.3   108  LEU108      0.0019
    100  CD1       91.4080   -5.5280  160.0770 C.3   108  LEU108      0.0001
    101  CD2       89.1940   -4.6220  160.6100 C.3   108  LEU108      0.0001
    102  N         90.9420   -7.8890  163.8320 N.3   110  PRO110     -0.2102
    103  CA        91.1120   -6.6620  164.5840 C.3   110  PRO110      0.1504
    104  C         91.3040   -6.8960  166.0670 C.2   110  PRO110      0.2576
    105  O         91.3410   -5.9220  166.8150 O.2   110  PRO110     -0.2718
    106  CB        89.7920   -5.9290  164.3980 C.3   110  PRO110      0.0282
    107  CG        88.8290   -7.0830  164.4200 C.3   110  PRO110      0.0208
    108  CD        89.5100   -8.1470  163.6040 C.3   110  PRO110      0.0893
    109  N         91.3600   -8.1420  166.5370 N.am  111  GLN111     -0.1966
    110  CA        91.8060   -8.4060  167.9180 C.3   111  GLN111      0.1733
    111  C         92.9390   -9.4150  167.8760 C.2   111  GLN111      0.2616
    112  O         92.7790  -10.6320  168.0560 O.2   111  GLN111     -0.2715
    113  CB        90.6540   -8.9510  168.7730 C.3   111  GLN111      0.0408
    114  CG        89.4500   -8.0310  168.7800 C.3   111  GLN111      0.0908
    115  CD        88.2380   -8.6390  169.4250 C.2   111  GLN111      0.2608
    116  OE1       88.3970   -9.5840  170.2030 O.2   111  GLN111     -0.2717
    117  NE2       87.0800   -8.1080  169.0620 N.am  111  GLN111     -0.0878
    118  N         94.1480   -8.9050  167.6930 N.am  112  ALA112     -0.1964
    119  CA        95.3160   -9.7600  167.5720 C.3   112  ALA112      0.1713
    120  C         95.5920  -10.8300  168.6200 C.2   112  ALA112      0.2458
    121  O         96.1660  -11.8740  168.2750 O.2   112  ALA112     -0.2730
    122  CB        96.5010   -8.8150  167.4970 C.3   112  ALA112      0.0333
    123  N         95.3660  -10.5930  169.9150 N.am  113  PRO113     -0.2727
    124  CA        95.5070  -11.5740  170.9540 C.3   113  PRO113      0.1402
    125  C         94.7850  -12.8740  170.6600 C.2   113  PRO113      0.2269
    126  O         95.2420  -13.8630  171.2130 O.2   113  PRO113     -0.2865
    127  CB        94.8330  -10.9490  172.2110 C.3   113  PRO113      0.0296
    128  CG        95.0000   -9.4890  171.9800 C.3   113  PRO113      0.0237
    129  CD        95.1090   -9.2520  170.5000 C.3   113  PRO113      0.0939
    130  N         86.2000  -12.9330  168.6280 N.3   143  ASN143     -0.1240
    131  CA        85.7320  -11.7700  169.3540 C.3   143  ASN143      0.1653
    132  C         85.7380  -12.0980  170.8580 C.2   143  ASN143      0.2266
    133  O         85.0000  -12.9820  171.2650 O.2   143  ASN143     -0.2867
    134  CB        84.2900  -11.4050  169.0300 C.3   143  ASN143      0.1155
    135  CG        83.9360  -10.0480  169.6200 C.2   143  ASN143      0.2627
    136  OD1       84.7320   -9.1030  169.4790 O.2   143  ASN143     -0.2716
    137  ND2       82.7710  -10.0080  170.2620 N.am  143  ASN143     -0.0877
    138  N         89.3450   -8.6840  175.5520 N.3   147  ALA147     -0.1231
    139  CA        90.6290   -8.4560  174.8400 C.3   147  ALA147      0.1694
    140  C         91.1410   -7.0380  174.9670 C.2   147  ALA147      0.2591
    141  O         92.3150   -6.7830  175.2070 O.2   147  ALA147     -0.2718
    142  CB        90.4150   -8.8160  173.3800 C.3   147  ALA147      0.0304
    143  N         90.2140   -6.0740  174.8880 N.am  148  ARG148     -0.1980
    144  CA        90.6180   -4.6780  175.0830 C.3   148  ARG148      0.1597
    145  C         91.0060   -4.3610  176.5110 C.2   148  ARG148      0.2287
    146  O         92.1520   -3.9220  176.7380 O.2   148  ARG148     -0.2864
    147  CB        89.4840   -3.7900  174.5240 C.3   148  ARG148      0.0334
    148  CG        89.7290   -2.3200  174.8030 C.3   148  ARG148      0.0492
    149  CD        88.6500   -1.3880  174.3150 C.3   148  ARG148      0.2205
    150  NE        87.3570   -2.0130  174.2930 N.pl3 148  ARG148     -0.0865
    151  CZ        86.4660   -2.0150  173.3250 C.cat 148  ARG148      0.5346
    152  NH1       86.8390   -1.3750  172.2020 N.pl3 148  ARG148      0.1354
    153  NH2       85.2970   -2.6330  173.5290 N.pl3 148  ARG148      0.1354
    154  N         94.4280   -5.9320  176.7770 N.3   151  TYR151     -0.1227
    155  CA        95.6050   -5.7310  175.9080 C.3   151  TYR151      0.1736
    156  C         95.6350   -4.3840  175.1870 C.2   151  TYR151      0.2595
    157  O         96.6370   -4.1080  174.5110 O.2   151  TYR151     -0.2718
    158  CB        95.7290   -6.8460  174.8260 C.3   151  TYR151      0.0548
    159  CG        96.0510   -8.2400  175.3280 C.ar  151  TYR151     -0.0200
    160  CD1       97.3280   -8.5590  175.7230 C.ar  151  TYR151     -0.0009
    161  CD2       95.0610   -9.1840  175.4680 C.ar  151  TYR151     -0.0009
    162  CE1       97.6320   -9.8050  176.2340 C.ar  151  TYR151      0.0417
    163  CE2       95.3250  -10.4460  175.9540 C.ar  151  TYR151      0.0417
    164  CZ        96.6170  -10.7390  176.3320 C.ar  151  TYR151      0.1957
    165  OH        96.8970  -11.9920  176.8250 O.3   151  TYR151     -0.2866
    166  N         94.6170   -3.5570  175.2660 N.am  152  GLN152     -0.1979
    167  CA        94.6370   -2.2960  174.4810 C.3   152  GLN152      0.1601
    168  C         95.7770   -1.3820  174.8450 C.2   152  GLN152      0.2287
    169  O         96.5400   -0.9080  173.9560 O.2   152  GLN152     -0.2864
    170  CB        93.2820   -1.6380  174.5440 C.3   152  GLN152      0.0394
    171  CG        93.2790   -0.1970  174.0830 C.3   152  GLN152      0.0908
    172  CD        91.9100    0.3050  173.7410 C.2   152  GLN152      0.2608
    173  OE1       91.0210    0.5410  174.5540 O.2   152  GLN152     -0.2717
    174  NE2       91.6570    0.4350  172.4410 N.am  152  GLN152     -0.0878
    175  N         98.8040   -2.8160  173.3440 N.3   155  SER155     -0.1217
    176  CA        98.6530   -2.6640  171.9040 C.3   155  SER155      0.1889
    177  C         99.0830   -1.2440  171.5300 C.2   155  SER155      0.2288
    178  O        100.0780   -1.0330  170.8100 O.2   155  SER155     -0.2866
    179  CB        97.2270   -2.9850  171.4700 C.3   155  SER155      0.2089
    180  OG        97.0140   -2.4140  170.1630 O.3   155  SER155     -0.2183
    181  N        102.4670   -0.3080  169.3120 N.3   159  HIS159     -0.1241
    182  CA       102.2430    0.4450  168.0860 C.3   159  HIS159      0.1621
    183  C        103.0250    1.7430  168.0530 C.2   159  HIS159      0.2264
    184  O        103.7180    2.0650  167.0720 O.2   159  HIS159     -0.2867
    185  CB       100.7580    0.6700  167.8180 C.3   159  HIS159      0.0745
    186  CG       100.5820    1.2730  166.4550 C.ar  159  HIS159      0.0817
    187  ND1      100.2300    2.6090  166.2810 N.ar  159  HIS159     -0.2268
    188  CD2      100.7390    0.7670  165.2160 C.ar  159  HIS159      0.1154
    189  CE1      100.1730    2.8830  164.9860 C.ar  159  HIS159      0.1986
    190  NE2      100.4830    1.7890  164.3240 N.ar  159  HIS159     -0.2212
@<TRIPOS>BOND
     1    84    85    1
     2    84    81    1
     3    89    88    2
     4    88    87    1
     5    87    86    1
     6    87    90    1
     7    32    31    2
     8    86    82   am
     9    82    83    2
    10    82    81    1
    11    81    80    1
    12    38    36   ar
    13    38    39   ar
    14    36    34   ar
    15    80    74   am
    16    72    73    1
    17    27    26    2
    18    31    30    1
    19    90    91    1
    20    30    33    1
    21    30    29    1
    22    39    37   ar
    23    34    33    1
    24    34    35   ar
    25    74    73    1
    26    74    75    2
    27    68    67    2
    28    26    29   am
    29    26    25    1
    30    73    76    1
    31    91    93   am
    32    91    92    2
    33    67    66    1
    34    37    35   ar
    35    76    77    1
    36    25    28    1
    37    25    24    1
    38    71    69    1
    39    70    69    1
    40    77    79    1
    41    77    78    1
    42    20    19    2
    43    69    66    1
    44    66    65    1
    45    24    19   am
    46    19    18    1
    47    94    95    1
    48    12    11    2
    49    15    14   ar
    50    18    17    1
    51    18    21    1
    52    95    98    1
    53    95    96    1
    54    23    21    1
    55    11    17   am
    56    11    10    1
    57    98    99    1
    58    13    14    1
    59    13    10    1
    60    14    16   ar
    61    21    22    1
    62     9    10    1
    63   100    99    1
    64    96    97    2
    65    99   101    1
    66    40    41    1
    67    61    60    2
    68    41    42    1
    69    41    44    1
    70    60    59    1
    71    45    44    1
    72    45    46    1
    73    48    46   am
    74    42    43    2
    75    46    47    2
    76    64    62    1
    77   108   102    1
    78   108   107    1
    79    59    62    1
    80    59    58    1
    81   102   103    1
    82    62    63    1
    83   190   189   ar
    84   190   188   ar
    85   106   107    1
    86   106   103    1
    87   103   104    1
    88   189   187   ar
    89   188   186   ar
    90   104   109   am
    91   104   105    2
    92    49    50    1
    93   187   186   ar
    94   186   185    1
    95   109   110    1
    96    51    50    1
    97    51    52    2
    98    57    56    1
    99   184   183    2
   100    56    55    1
   101    50    53    1
   102    54    53    1
   103    54    55    1
   104   122   119    1
   105   119   118    1
   106   119   120    1
   107   118   111   am
   108   185   182    1
   109   111   110    1
   110   111   112    2
   111   110   113    1
   112   183   182    1
   113   182   181    1
   114   121   120    2
   115   120   123   am
   116   130   131    1
   117   113   114    1
   118   114   115    1
   119   134   131    1
   120   134   135    1
   121   117   115   am
   122   131   132    1
   123   115   116    2
   124   136   135    2
   125   135   137   am
   126   123   129    1
   127   123   124    1
   128     1     2    1
   129   180   179    1
   130   129   128    1
   131   125   124    1
   132   125   126    2
   133   178   177    2
   134     7     5    1
   135   132   133    2
   136   124   127    1
   137     5     2    1
   138     5     6    1
   139     2     3    1
   140   179   176    1
   141   177   176    1
   142   176   175    1
   143   128   127    1
   144   152   151    1
   145     8     6    1
   146     3     4    2
   147   174   172   am
   148   151   153    1
   149   151   150    2
   150   142   139    1
   151   172   171    1
   152   172   173    2
   153   169   168    2
   154   171   170    1
   155   150   149    1
   156   149   148    1
   157   167   170    1
   158   167   168    1
   159   167   166    1
   160   157   156    2
   161   147   148    1
   162   147   144    1
   163   158   159    1
   164   158   155    1
   165   139   140    1
   166   139   138    1
   167   143   140   am
   168   143   144    1
   169   140   141    2
   170   144   145    1
   171   156   166   am
   172   156   155    1
   173   159   161   ar
   174   159   160   ar
   175   161   163   ar
   176   160   162   ar
   177   155   154    1
   178   163   164   ar
   179   162   164   ar
   180   164   165    1
   181   145   146    2
