@<TRIPOS>MOLECULE
tmp/1diqC01.pdb
 120 116 0 0 0
SMALL
GASTEIGER

@<TRIPOS>ATOM
      1  N         64.1040   31.1310   -4.7670 N.3    89  TYR89      -0.1241
      2  CA        64.7870   30.1460   -5.5960 C.3    89  TYR89       0.1605
      3  C         64.8850   28.7330   -4.9780 C.2    89  TYR89       0.2264
      4  O         65.5460   27.8430   -5.5510 O.2    89  TYR89      -0.2867
      5  CB        66.1640   30.6460   -6.0510 C.3    89  TYR89       0.0534
      6  CG        66.1620   31.6780   -7.1570 C.ar   89  TYR89      -0.0201
      7  CD1       65.4960   31.4420   -8.3750 C.ar   89  TYR89      -0.0009
      8  CD2       66.8390   32.9080   -6.9980 C.ar   89  TYR89      -0.0009
      9  CE1       65.4960   32.4030   -9.4220 C.ar   89  TYR89       0.0417
     10  CE2       66.8480   33.8880   -8.0330 C.ar   89  TYR89       0.0417
     11  CZ        66.1700   33.6190   -9.2390 C.ar   89  TYR89       0.1957
     12  OH        66.1260   34.5550  -10.2380 O.3    89  TYR89      -0.2866
     13  N         71.1520   41.8090   -3.4070 N.3   148  ALA148     -0.1245
     14  CA        70.4420   42.6360   -2.4080 C.3   148  ALA148      0.1562
     15  C         70.3760   42.0810   -0.9650 C.2   148  ALA148      0.2260
     16  O         70.4110   42.8750   -0.0290 O.2   148  ALA148     -0.2867
     17  CB        69.0820   43.0810   -2.9000 C.3   148  ALA148      0.0290
     18  N         73.6180   38.0750   -9.4880 N.3   164  VAL164     -0.1245
     19  CA        74.0010   39.4140   -9.9330 C.3   164  VAL164      0.1561
     20  C         74.0620   40.5020   -8.8630 C.2   164  VAL164      0.2260
     21  O         73.2760   40.5100   -7.9060 O.2   164  VAL164     -0.2867
     22  CB        73.0850   39.8990  -11.0820 C.3   164  VAL164      0.0252
     23  CG1       73.3840   39.1230  -12.3460 C.3   164  VAL164      0.0019
     24  CG2       71.6050   39.7480  -10.7040 C.3   164  VAL164      0.0019
     25  N         75.3940   44.9740   -8.3220 N.3   166  TYR166     -0.1241
     26  CA        75.1470   46.3050   -8.9040 C.3   166  TYR166      0.1605
     27  C         76.3140   47.2490   -9.1410 C.2   166  TYR166      0.2264
     28  O         76.1000   48.3560   -9.6220 O.2   166  TYR166     -0.2867
     29  CB        74.0550   47.0230   -8.0980 C.3   166  TYR166      0.0534
     30  CG        72.8080   46.1840   -7.9680 C.ar  166  TYR166     -0.0201
     31  CD1       71.9280   46.0510   -9.0560 C.ar  166  TYR166     -0.0009
     32  CD2       72.6140   45.3510   -6.8440 C.ar  166  TYR166     -0.0009
     33  CE1       70.8950   45.0880   -9.0360 C.ar  166  TYR166      0.0417
     34  CE2       71.5860   44.3870   -6.8260 C.ar  166  TYR166      0.0417
     35  CZ        70.7390   44.2640   -7.9310 C.ar  166  TYR166      0.1957
     36  OH        69.7690   43.3000   -7.9670 O.3   166  TYR166     -0.2866
     37  N         57.6960   47.8280   -8.3030 N.3   279  TRP279     -0.1241
     38  CA        58.9290   47.3360   -7.6850 C.3   279  TRP279      0.1605
     39  C         59.4550   48.4740   -6.8140 C.2   279  TRP279      0.2264
     40  O         59.8520   48.2550   -5.6590 O.2   279  TRP279     -0.2867
     41  CB        59.9940   46.9560   -8.7240 C.3   279  TRP279      0.0550
     42  CG        61.3040   46.3400   -8.1220 C.ar  279  TRP279      0.0003
     43  CD1       62.2480   46.9690   -7.3280 C.ar  279  TRP279      0.0946
     44  CD2       61.7580   44.9960   -8.2680 C.ar  279  TRP279      0.0152
     45  NE1       63.2310   46.0950   -6.9690 N.ar  279  TRP279     -0.2442
     46  CE2       62.9670   44.8770   -7.5330 C.ar  279  TRP279      0.0810
     47  CE3       61.2720   43.8710   -8.9560 C.ar  279  TRP279      0.0012
     48  CZ2       63.7020   43.6640   -7.4710 C.ar  279  TRP279      0.0191
     49  CZ3       62.0100   42.6570   -8.9000 C.ar  279  TRP279      0.0001
     50  CH2       63.2100   42.5730   -8.1610 C.ar  279  TRP279      0.0015
     51  N         65.4570   46.1230    0.2460 N.3   374  GLU374     -0.1245
     52  CA        64.6870   45.5130   -0.8480 C.3   374  GLU374      0.1567
     53  C         63.7160   44.4140   -0.4230 C.2   374  GLU374      0.2260
     54  O         62.8370   44.0500   -1.2100 O.2   374  GLU374     -0.2867
     55  CB        65.5930   45.0000   -1.9730 C.3   374  GLU374      0.0388
     56  CG        64.8660   44.9330   -3.3110 C.3   374  GLU374      0.1160
     57  CD        65.7690   44.6880   -4.4780 C.2   374  GLU374      0.3649
     58  OE1       65.9770   45.6210   -5.2770 O.co2 374  GLU374     -0.2457
     59  OE2       66.2450   43.5510   -4.6210 O.co2 374  GLU374     -0.2457
     60  N         60.7870   34.0300   -8.3640 N.3   388  TRP388     -0.1241
     61  CA        61.4190   34.8570   -9.3700 C.3   388  TRP388      0.1605
     62  C         61.3010   34.2840  -10.7580 C.2   388  TRP388      0.2264
     63  O         61.6880   33.1510  -11.0130 O.2   388  TRP388     -0.2867
     64  CB        62.8980   35.0590   -9.0740 C.3   388  TRP388      0.0550
     65  CG        63.2050   35.5790   -7.7410 C.ar  388  TRP388      0.0003
     66  CD1       63.6950   34.8760   -6.6980 C.ar  388  TRP388      0.0946
     67  CD2       63.0210   36.9160   -7.2720 C.ar  388  TRP388      0.0152
     68  NE1       63.8190   35.6720   -5.5830 N.ar  388  TRP388     -0.2442
     69  CE2       63.4050   36.9340   -5.9060 C.ar  388  TRP388      0.0810
     70  CE3       62.5710   38.1110   -7.8680 C.ar  388  TRP388      0.0012
     71  CZ2       63.3440   38.0940   -5.1270 C.ar  388  TRP388      0.0191
     72  CZ3       62.5200   39.2730   -7.0850 C.ar  388  TRP388      0.0001
     73  CH2       62.9010   39.2520   -5.7300 C.ar  388  TRP388      0.0015
     74  N         61.9330   44.5520  -12.7530 N.3   421  GLU421     -0.1245
     75  CA        63.0740   45.4240  -13.0250 C.3   421  GLU421      0.1567
     76  C         64.0040   44.7780  -14.0310 C.2   421  GLU421      0.2260
     77  O         64.0890   43.5430  -14.1170 O.2   421  GLU421     -0.2867
     78  CB        63.8650   45.7980  -11.7550 C.3   421  GLU421      0.0388
     79  CG        64.6220   44.6830  -11.0640 C.3   421  GLU421      0.1160
     80  CD        65.5240   45.2000   -9.9620 C.2   421  GLU421      0.3649
     81  OE1       65.2730   46.3110   -9.4790 O.co2 421  GLU421     -0.2457
     82  OE2       66.4660   44.4950   -9.5480 O.co2 421  GLU421     -0.2457
     83  N         67.8910   44.4370  -15.1700 N.3   423  ILE423     -0.1245
     84  CA        69.2630   44.6560  -14.7050 C.3   423  ILE423      0.1561
     85  C         70.0770   44.6750  -16.0010 C.2   423  ILE423      0.2260
     86  O         70.1500   43.6760  -16.7140 O.2   423  ILE423     -0.2867
     87  CB        69.7490   43.5760  -13.7430 C.3   423  ILE423      0.0252
     88  CG1       68.7670   43.4570  -12.5720 C.3   423  ILE423      0.0019
     89  CG2       71.1770   43.9060  -13.2660 C.3   423  ILE423      0.0019
     90  CD1       69.0880   42.3560  -11.6380 C.3   423  ILE423      0.0001
     91  N         64.0230   40.6850  -14.3730 N.3   432  VAL432     -0.1245
     92  CA        63.6250   40.0630  -13.1190 C.3   432  VAL432      0.1561
     93  C         62.2150   40.4270  -12.6840 C.2   432  VAL432      0.2260
     94  O         61.9590   41.5670  -12.3300 O.2   432  VAL432     -0.2867
     95  CB        64.6330   40.4350  -12.0090 C.3   432  VAL432      0.0252
     96  CG1       64.2400   39.8060  -10.6730 C.3   432  VAL432      0.0019
     97  CG2       66.0260   40.0030  -12.4190 C.3   432  VAL432      0.0019
     98  N         67.2760   32.3260  -16.7300 N.3   467  TYR467     -0.1227
     99  CA        68.6870   32.0970  -16.4230 C.3   467  TYR467      0.1736
    100  C         68.9320   31.3170  -15.1250 C.2   467  TYR467      0.2595
    101  O         70.0520   30.9260  -14.8420 O.2   467  TYR467     -0.2718
    102  CB        69.4170   33.4730  -16.3800 C.3   467  TYR467      0.0548
    103  CG        69.5190   34.1600  -15.0160 C.ar  467  TYR467     -0.0200
    104  CD1       70.7500   34.2190  -14.3250 C.ar  467  TYR467     -0.0009
    105  CD2       68.3780   34.6950  -14.3820 C.ar  467  TYR467     -0.0009
    106  CE1       70.8380   34.7920  -13.0220 C.ar  467  TYR467      0.0417
    107  CE2       68.4570   35.2750  -13.0740 C.ar  467  TYR467      0.0417
    108  CZ        69.6790   35.3210  -12.4020 C.ar  467  TYR467      0.1957
    109  OH        69.7380   35.8910  -11.1330 O.3   467  TYR467     -0.2866
    110  N         67.9040   31.2810  -14.2830 N.am  468  ARG468     -0.1980
    111  CA        67.9320   30.6700  -12.9620 C.3   468  ARG468      0.1597
    112  C         66.4610   30.4960  -12.5660 C.2   468  ARG468      0.2287
    113  O         65.6200   31.3190  -12.9350 O.2   468  ARG468     -0.2864
    114  CB        68.6160   31.6640  -12.0230 C.3   468  ARG468      0.0334
    115  CG        69.0180   31.2350  -10.6540 C.3   468  ARG468      0.0492
    116  CD        69.7210   32.4240  -10.0230 C.3   468  ARG468      0.2205
    117  NE        69.9770   32.2930   -8.5940 N.pl3 468  ARG468     -0.0865
    118  CZ        70.3630   33.2880   -7.8030 C.cat 468  ARG468      0.5346
    119  NH1       70.5350   34.5090   -8.2890 N.pl3 468  ARG468      0.1354
    120  NH2       70.5710   33.0590   -6.5160 N.pl3 468  ARG468      0.1354
@<TRIPOS>BOND
     1    98    99    1
     2    86    85    2
     3    99   102    1
     4    99   100    1
     5   102   103    1
     6    85    84    1
     7    83    84    1
     8   100   101    2
     9   100   110   am
    10   103   105   ar
    11   103   104   ar
    12    84    87    1
    13   105   107   ar
    14    91    92    1
    15   104   106   ar
    16   110   111    1
    17    77    76    2
    18    76    75    1
    19    87    89    1
    20    87    88    1
    21    92    93    1
    22    92    95    1
    23   107   108   ar
    24    75    74    1
    25    75    78    1
    26   106   108   ar
    27   111   112    1
    28   111   114    1
    29   113   112    2
    30    93    94    2
    31    88    90    1
    32    97    95    1
    33   108   109    1
    34    23    22    1
    35   114   115    1
    36    95    96    1
    37    78    79    1
    38    22    24    1
    39    22    19    1
    40    79    80    1
    41    63    62    2
    42    62    61    1
    43   115   116    1
    44    12    11    1
    45   116   117    1
    46    80    82   ar
    47    80    81   ar
    48    19    18    1
    49    19    20    1
    50    28    27    2
    51     9    11   ar
    52     9     7   ar
    53    61    64    1
    54    61    60    1
    55    11    10   ar
    56    27    26    1
    57    64    65    1
    58    31    33   ar
    59    31    30   ar
    60    33    35   ar
    61    47    49   ar
    62    47    44   ar
    63    26    25    1
    64    26    29    1
    65    49    50   ar
    66    20    21    2
    67    41    42    1
    68    41    38    1
    69   117   118    2
    70     7     6   ar
    71    37    38    1
    72   119   118    1
    73    44    42   ar
    74    44    46   ar
    75    50    48   ar
    76    42    43   ar
    77    29    30    1
    78    10     8   ar
    79    30    32   ar
    80    36    35    1
    81    35    34   ar
    82    70    67   ar
    83    70    72   ar
    84   118   120    1
    85    65    67   ar
    86    65    66   ar
    87    38    39    1
    88    46    48   ar
    89    46    45   ar
    90    43    45   ar
    91    67    69   ar
    92     6     8   ar
    93     6     5    1
    94    72    73   ar
    95    32    34   ar
    96    39    40    2
    97    66    68   ar
    98     5     2    1
    99    69    68   ar
   100    69    71   ar
   101    73    71   ar
   102     2     3    1
   103     2     1    1
   104     4     3    2
   105    58    57   ar
   106    59    57   ar
   107    57    56    1
   108    13    14    1
   109    56    55    1
   110    17    14    1
   111    14    15    1
   112    55    52    1
   113    54    53    2
   114    15    16    2
   115    52    53    1
   116    52    51    1
