@<TRIPOS>MOLECULE
tmp/1diuA00.pdb
 185 185 0 0 0
SMALL
GASTEIGER

@<TRIPOS>ATOM
      1  N         -1.7260   24.1540   25.3990 N.3     4  LEU4       -0.1231
      2  CA        -2.5490   25.3980   25.1210 C.3     4  LEU4        0.1693
      3  C         -2.2140   25.7820   23.6520 C.2     4  LEU4        0.2592
      4  O         -1.1380   26.3390   23.4010 O.2     4  LEU4       -0.2718
      5  CB        -2.1570   26.5920   26.1310 C.3     4  LEU4        0.0284
      6  CG        -2.2840   28.1730   25.8950 C.3     4  LEU4        0.0019
      7  CD1       -3.7610   28.5730   25.7250 C.3     4  LEU4        0.0001
      8  CD2       -1.5680   29.2070   26.9000 C.3     4  LEU4        0.0001
      9  N         -3.1000   25.4800   22.6730 N.am    5  TRP5       -0.1962
     10  CA        -2.8560   25.8450   21.2430 C.3     5  TRP5        0.1771
     11  C         -4.1490   26.1370   20.4120 C.2     5  TRP5        0.2619
     12  O         -5.2780   25.9030   20.8490 O.2     5  TRP5       -0.2715
     13  CB        -1.8370   24.8730   20.5720 C.3     5  TRP5        0.0590
     14  CG        -2.3830   23.6180   19.9010 C.ar    5  TRP5        0.0006
     15  CD1       -2.5430   23.4590   18.5130 C.ar    5  TRP5        0.0946
     16  CD2       -2.7270   22.4080   20.4600 C.ar    5  TRP5        0.0152
     17  NE1       -2.9740   22.1690   18.1880 N.ar    5  TRP5       -0.2442
     18  CE2       -3.0640   21.5260   19.4060 C.ar    5  TRP5        0.0810
     19  CE3       -2.7230   21.9570   21.8010 C.ar    5  TRP5        0.0012
     20  CZ2       -3.3640   20.1730   19.6810 C.ar    5  TRP5        0.0191
     21  CZ3       -3.0380   20.6220   22.0530 C.ar    5  TRP5        0.0001
     22  CH2       -3.3420   19.7400   21.0080 C.ar    5  TRP5        0.0015
     23  N         -3.9200   26.6560   19.1880 N.am    6  ALA6       -0.1977
     24  CA        -4.9630   26.8850   18.1550 C.3     6  ALA6        0.1597
     25  C         -4.4080   26.4620   16.7650 C.2     6  ALA6        0.2287
     26  O         -3.2800   26.8460   16.4290 O.2     6  ALA6       -0.2864
     27  CB        -5.3230   28.3820   18.1510 C.3     6  ALA6        0.0319
     28  N          4.7930   34.3520   13.4090 N.3    18  HIS18      -0.1226
     29  CA         3.6180   35.0310   13.9320 C.3    18  HIS18       0.1752
     30  C          2.4400   34.0100   13.6520 C.2    18  HIS18       0.2595
     31  O          2.6800   32.8340   13.2510 O.2    18  HIS18      -0.2718
     32  CB         3.3240   36.4620   13.2230 C.3    18  HIS18       0.0759
     33  CG         3.3520   36.5990   11.7100 C.ar   18  HIS18       0.0818
     34  ND1        2.1880   36.2750   10.7850 N.ar   18  HIS18      -0.2268
     35  CD2        4.3440   37.0220   10.8510 C.ar   18  HIS18       0.1154
     36  CE1        2.6370   36.4060    9.4130 C.ar   18  HIS18       0.1986
     37  NE2        3.8800   36.9040    9.3100 N.ar   18  HIS18      -0.2212
     38  N          1.2110   34.2840   13.9880 N.am   19  LEU19      -0.1980
     39  CA         0.0360   33.5310   13.8200 C.3    19  LEU19       0.1596
     40  C         -0.2910   33.8360   12.3260 C.2    19  LEU19       0.2287
     41  O         -0.1150   34.6140   11.5700 O.2    19  LEU19      -0.2864
     42  CB        -1.0850   34.1170   14.7370 C.3    19  LEU19       0.0297
     43  CG        -0.9950   33.8660   16.2750 C.3    19  LEU19       0.0022
     44  CD1       -1.8480   34.8960   17.0420 C.3    19  LEU19       0.0001
     45  CD2       -1.4960   32.4560   16.6540 C.3    19  LEU19       0.0001
     46  N        -10.3230   33.7730   20.4650 N.3    26  ASP26      -0.1225
     47  CA        -9.3250   32.7470   20.8570 C.3    26  ASP26       0.1805
     48  C         -8.1150   33.2700   21.6680 C.2    26  ASP26       0.2598
     49  O         -7.5630   32.5190   22.4720 O.2    26  ASP26      -0.2718
     50  CB        -8.9920   32.0490   19.5220 C.3    26  ASP26       0.1424
     51  CG        -8.0590   30.8640   19.6210 C.2    26  ASP26       0.3668
     52  OD1       -8.3450   29.9190   20.3910 O.co2  26  ASP26      -0.2456
     53  OD2       -6.9960   30.9050   18.9720 O.co2  26  ASP26      -0.2456
     54  N         -7.7390   34.5390   21.4740 N.am   27  LEU27      -0.1966
     55  CA        -6.8070   35.2680   22.3580 C.3    27  LEU27       0.1728
     56  C         -7.4460   35.9260   23.6260 C.2    27  LEU27       0.2616
     57  O         -6.7220   36.1230   24.6060 O.2    27  LEU27      -0.2715
     58  CB        -6.0370   36.2690   21.4700 C.3    27  LEU27       0.0311
     59  CG        -4.9260   35.6030   20.6010 C.3    27  LEU27       0.0022
     60  CD1       -5.3560   34.9870   19.2480 C.3    27  LEU27       0.0001
     61  CD2       -3.8200   36.6160   20.3700 C.3    27  LEU27       0.0001
     62  N         -8.7740   36.1900   23.6720 N.am   28  HIS28      -0.1959
     63  CA        -9.5340   36.3060   24.9560 C.3    28  HIS28       0.1787
     64  C         -9.4960   35.0000   25.8200 C.2    28  HIS28       0.2620
     65  O         -9.2440   35.0900   27.0250 O.2    28  HIS28      -0.2715
     66  CB       -11.0000   36.7690   24.6850 C.3    28  HIS28       0.0785
     67  CG       -11.2070   38.1480   24.0430 C.ar   28  HIS28       0.0821
     68  ND1      -10.5200   39.2820   24.4170 N.ar   28  HIS28      -0.2267
     69  CD2      -12.0860   38.4710   22.9910 C.ar   28  HIS28       0.1154
     70  CE1      -10.9410   40.1810   23.4870 C.ar   28  HIS28       0.1986
     71  NE2      -11.9250   39.8010   22.6090 N.ar   28  HIS28      -0.2212
     72  N         -9.7000   33.8090   25.2120 N.am   29  TYR29      -0.1960
     73  CA        -9.4690   32.4960   25.8780 C.3    29  TYR29       0.1771
     74  C         -7.9670   32.1000   26.0660 C.2    29  TYR29       0.2620
     75  O         -7.7170   31.2880   26.9550 O.2    29  TYR29      -0.2715
     76  CB       -10.2810   31.4910   24.9860 C.3    29  TYR29       0.0574
     77  CG       -10.1390   29.9640   25.1670 C.ar   29  TYR29      -0.0198
     78  CD1       -9.0850   29.2840   24.5390 C.ar   29  TYR29      -0.0009
     79  CD2      -11.1300   29.2280   25.8250 C.ar   29  TYR29      -0.0009
     80  CE1       -9.0180   27.8930   24.5850 C.ar   29  TYR29       0.0417
     81  CE2      -11.0670   27.8360   25.8610 C.ar   29  TYR29       0.0417
     82  CZ       -10.0110   27.1690   25.2410 C.ar   29  TYR29       0.1957
     83  OH        -9.9540   25.7990   25.2670 O.3    29  TYR29      -0.2866
     84  N         -6.9690   32.6600   25.3360 N.am   30  PHE30      -0.1960
     85  CA        -5.5410   32.6080   25.7670 C.3    30  PHE30       0.1771
     86  C         -5.3460   33.3120   27.1370 C.2    30  PHE30       0.2619
     87  O         -4.8280   32.6650   28.0510 O.2    30  PHE30      -0.2715
     88  CB        -4.5520   33.1840   24.7070 C.3    30  PHE30       0.0574
     89  CG        -3.0500   32.9080   24.9810 C.ar   30  PHE30      -0.0200
     90  CD1       -2.3670   33.5030   26.0530 C.ar   30  PHE30      -0.0042
     91  CD2       -2.3700   31.9920   24.1810 C.ar   30  PHE30      -0.0042
     92  CE1       -1.0640   33.1260   26.3550 C.ar   30  PHE30      -0.0003
     93  CE2       -1.0320   31.6950   24.4170 C.ar   30  PHE30      -0.0003
     94  CZ        -0.3820   32.2600   25.5100 C.ar   30  PHE30      -0.0000
     95  N         -5.7320   34.6050   27.2660 N.am   31  ARG31      -0.1977
     96  CA        -5.5680   35.3630   28.5290 C.3    31  ARG31       0.1597
     97  C         -6.1620   34.6960   29.7930 C.2    31  ARG31       0.2287
     98  O         -5.5410   34.8470   30.8420 O.2    31  ARG31      -0.2864
     99  CB        -6.1300   36.7870   28.3660 C.3    31  ARG31       0.0334
    100  CG        -5.7240   37.6980   29.5450 C.3    31  ARG31       0.0492
    101  CD        -6.1180   39.1790   29.3800 C.3    31  ARG31       0.2205
    102  NE        -5.6350   40.0020   30.5230 N.pl3  31  ARG31      -0.0865
    103  CZ        -5.6550   41.3480   30.5550 C.cat  31  ARG31       0.5346
    104  NH1       -6.1100   42.1110   29.5620 N.pl3  31  ARG31       0.1354
    105  NH2       -5.1950   41.9500   31.6370 N.pl3  31  ARG31       0.1354
    106  N          8.2420   32.3730   20.3660 N.3    45  THR45      -0.1274
    107  CA         6.7730   32.6660   20.6650 C.3    45  THR45       0.1548
    108  C          6.9670   33.7990   21.7950 C.3    45  THR45       0.2036
    109  O          6.1800   34.7380   21.5890 O.3    45  THR45      -0.2187
    110  CB         5.9720   31.4900   21.3470 C.3    45  THR45       0.1721
    111  OG1        6.1010   30.5940   20.2070 O.3    45  THR45      -0.2215
    112  CG2        4.5670   31.8200   21.8600 C.3    45  THR45       0.0371
    113  N          7.4410   37.2340   19.9030 N.3    48  SER48      -0.1202
    114  CA         6.2600   37.5940   19.0640 C.3    48  SER48       0.2020
    115  C          4.9400   38.0020   19.8030 C.2    48  SER48       0.2619
    116  O          4.0320   38.4850   19.1180 O.2    48  SER48      -0.2717
    117  CB         6.0100   36.4540   18.0500 C.3    48  SER48       0.2103
    118  OG         5.5430   35.2640   18.6760 O.3    48  SER48      -0.2182
    119  N          4.8160   37.8850   21.1500 N.am   49  PHE49      -0.1962
    120  CA         3.7030   38.5250   21.9130 C.3    49  PHE49       0.1756
    121  C          3.8520   40.0930   21.8670 C.2    49  PHE49       0.2461
    122  O          4.9500   40.5670   22.1760 O.2    49  PHE49      -0.2730
    123  CB         3.6700   38.1010   23.4210 C.3    49  PHE49       0.0574
    124  CG         3.2750   36.6500   23.7580 C.ar   49  PHE49      -0.0200
    125  CD1        1.9910   36.1820   23.4510 C.ar   49  PHE49      -0.0042
    126  CD2        4.1450   35.8090   24.4690 C.ar   49  PHE49      -0.0042
    127  CE1        1.6430   34.8620   23.7130 C.ar   49  PHE49      -0.0003
    128  CE2        3.7940   34.4900   24.7220 C.ar   49  PHE49      -0.0003
    129  CZ         2.5530   34.0090   24.3240 C.ar   49  PHE49      -0.0000
    130  N          2.8270   40.9360   21.5320 N.am   50  PRO50      -0.2727
    131  CA         2.9350   42.4250   21.5690 C.3    50  PRO50       0.1402
    132  C          3.4320   43.0690   22.9020 C.2    50  PRO50       0.2269
    133  O          4.4230   43.8050   22.8800 O.2    50  PRO50      -0.2865
    134  CB         1.5290   42.8920   21.1370 C.3    50  PRO50       0.0296
    135  CG         0.9650   41.7360   20.3130 C.3    50  PRO50       0.0237
    136  CD         1.5420   40.4810   20.9690 C.3    50  PRO50       0.0939
    137  N          3.1940   39.4080   28.7710 N.3    54  LEU54      -0.1231
    138  CA         1.7250   39.4780   29.0280 C.3    54  LEU54       0.1678
    139  C          1.4330   39.1760   30.5160 C.2    54  LEU54       0.2431
    140  O          1.9790   38.2350   31.0940 O.2    54  LEU54      -0.2733
    141  CB         0.7550   38.6280   28.1450 C.3    54  LEU54       0.0284
    142  CG         0.9850   37.1330   27.7960 C.3    54  LEU54       0.0019
    143  CD1       -0.1200   36.6580   26.8250 C.3    54  LEU54       0.0001
    144  CD2        2.3510   36.8430   27.1610 C.3    54  LEU54       0.0001
    145  N          0.5570   39.9350   31.1700 N.am   55  PRO55      -0.2774
    146  CA         0.4060   40.0590   32.7110 C.3    55  PRO55       0.1083
    147  C         -0.4850   39.1380   33.4210 C.3    55  PRO55       0.2017
    148  O         -1.2760   38.3790   32.7480 O.3    55  PRO55      -0.2186
    149  CB        -0.3810   41.4220   32.8880 C.3    55  PRO55       0.0243
    150  CG        -1.3290   41.3970   31.6930 C.3    55  PRO55       0.0233
    151  CD        -0.2230   41.3470   30.6750 C.3    55  PRO55       0.0935
    152  N          0.1370   36.1570   35.0080 N.3    57  ARG57      -0.1245
    153  CA         0.3410   34.7070   34.9150 C.3    57  ARG57       0.1563
    154  C          1.9040   34.7510   34.9890 C.2    57  ARG57       0.2260
    155  O          2.6230   35.7340   34.6630 O.2    57  ARG57      -0.2867
    156  CB        -0.2140   34.2090   33.5520 C.3    57  ARG57       0.0307
    157  CG         0.4510   34.6920   32.2260 C.3    57  ARG57       0.0489
    158  CD        -0.4870   34.7160   30.9910 C.3    57  ARG57       0.2205
    159  NE        -1.2300   36.0090   30.9210 N.pl3  57  ARG57      -0.0865
    160  CZ        -2.2430   36.2970   30.1640 C.cat  57  ARG57       0.5346
    161  NH1       -2.7260   35.5050   29.2530 N.pl3  57  ARG57       0.1354
    162  NH2       -2.7370   37.4820   30.3040 N.pl3  57  ARG57       0.1354
    163  N          2.3390   26.5550   26.1560 N.3    97  ALA97      -0.1301
    164  CA         1.6350   27.3510   25.1380 C.3    97  ALA97       0.1247
    165  C          2.4360   27.4200   23.7370 C.3    97  ALA97       0.2009
    166  O          1.8650   28.1980   22.9810 O.3    97  ALA97      -0.2188
    167  CB         1.3730   28.7140   25.8380 C.3    97  ALA97       0.0233
    168  N          6.4890   22.3910   22.2800 N.3   103  PHE103     -0.1241
    169  CA         5.5730   21.2150   22.4020 C.3   103  PHE103      0.1605
    170  C          6.3130   19.8830   22.3270 C.2   103  PHE103      0.2264
    171  O          6.0540   18.8880   22.9900 O.2   103  PHE103     -0.2867
    172  CB         4.4270   21.2960   21.3650 C.3   103  PHE103      0.0534
    173  CG         3.3810   22.4470   21.5330 C.ar  103  PHE103     -0.0203
    174  CD1        2.8490   22.5220   22.8780 C.ar  103  PHE103     -0.0042
    175  CD2        3.0610   23.2870   20.4690 C.ar  103  PHE103     -0.0042
    176  CE1        1.8110   23.4620   22.9710 C.ar  103  PHE103     -0.0003
    177  CE2        2.0300   24.2270   20.6280 C.ar  103  PHE103     -0.0003
    178  CZ         1.5380   24.3580   21.9820 C.ar  103  PHE103     -0.0000
    179  N         -7.9230   24.7370   19.9650 N.3   116  THR116     -0.1218
    180  CA        -8.9500   25.4840   19.2640 C.3   116  THR116      0.1862
    181  C         -8.7020   25.0050   17.7700 C.2   116  THR116      0.2287
    182  O         -7.6100   25.1670   17.2660 O.2   116  THR116     -0.2866
    183  CB        -8.7980   27.0270   19.4600 C.3   116  THR116      0.1770
    184  OG1       -8.7880   27.3270   20.8500 O.3   116  THR116     -0.2211
    185  CG2       -9.9800   27.7590   18.7930 C.3   116  THR116      0.0375
@<TRIPOS>BOND
     1    37    36   ar
     2    37    35   ar
     3    36    34   ar
     4    34    33   ar
     5    35    33   ar
     6    41    40    2
     7    33    32    1
     8    40    39    1
     9    32    29    1
    10    31    30    2
    11    28    29    1
    12    30    29    1
    13    30    38   am
    14    39    38    1
    15    39    42    1
    16    42    43    1
    17    43    45    1
    18    43    44    1
    19    26    25    2
    20    25    24    1
    21   182   181    2
    22   181   180    1
    23   117   118    1
    24   117   114    1
    25    27    24    1
    26    24    23    1
    27    17    15   ar
    28    17    18   ar
    29    15    14   ar
    30   185   183    1
    31    53    51   ar
    32   114   115    1
    33   114   113    1
    34   116   115    2
    35    23    11   am
    36    60    59    1
    37   180   183    1
    38   180   179    1
    39    18    20   ar
    40    18    16   ar
    41   183   184    1
    42    50    51    1
    43    50    47    1
    44    51    52   ar
    45    20    22   ar
    46   115   119   am
    47    14    16   ar
    48    14    13    1
    49   111   110    1
    50   135   136    1
    51   135   134    1
    52   106   107    1
    53    61    59    1
    54    11    12    2
    55    11    10    1
    56    16    19   ar
    57    46    47    1
    58   175   177   ar
    59   175   173   ar
    60    13    10    1
    61    59    58    1
    62   177   178   ar
    63   107   110    1
    64   107   108    1
    65    47    48    1
    66   136   130    1
    67    22    21   ar
    68   134   131    1
    69   119   120    1
    70    10     9    1
    71   110   112    1
    72   172   173    1
    73   172   169    1
    74    58    55    1
    75    54    48   am
    76    54    55    1
    77   130   131    1
    78   130   121   am
    79   173   174   ar
    80   131   132    1
    81   109   108    1
    82    48    49    2
    83    19    21   ar
    84   121   120    1
    85   121   122    2
    86   120   123    1
    87   178   176   ar
    88   168   169    1
    89   170   169    1
    90   170   171    2
    91    55    56    1
    92    71    69   ar
    93    71    70   ar
    94     9     3   am
    95   174   176   ar
    96   133   132    2
    97   166   165    1
    98    69    67   ar
    99     4     3    2
   100   123   124    1
   101   125   127   ar
   102   125   124   ar
   103    70    68   ar
   104    56    62   am
   105    56    57    2
   106     3     2    1
   107    62    63    1
   108   127   129   ar
   109   165   164    1
   110   124   126   ar
   111    67    68   ar
   112    67    66    1
   113    91    93   ar
   114    91    89   ar
   115   129   128   ar
   116    93    94   ar
   117   126   128   ar
   118    78    80   ar
   119    78    77   ar
   120    80    82   ar
   121    66    63    1
   122    88    89    1
   123    88    85    1
   124    63    64    1
   125    89    90   ar
   126    76    77    1
   127    76    73    1
   128     2     1    1
   129     2     5    1
   130   164   167    1
   131   164   163    1
   132    77    79   ar
   133    72    64   am
   134    72    73    1
   135    82    83    1
   136    82    81   ar
   137    84    85    1
   138    84    74   am
   139    94    92   ar
   140     7     6    1
   141    85    86    1
   142    64    65    2
   143    79    81   ar
   144    73    74    1
   145     6     5    1
   146     6     8    1
   147    90    92   ar
   148    74    75    2
   149   143   142    1
   150    86    95   am
   151    86    87    2
   152   144   142    1
   153    95    96    1
   154   142   141    1
   155   141   138    1
   156    99    96    1
   157    99   100    1
   158    96    97    1
   159   137   138    1
   160   138   139    1
   161   161   160    1
   162   101   100    1
   163   101   102    1
   164   104   103    1
   165    97    98    2
   166   160   162    1
   167   160   159    2
   168   139   140    2
   169   139   145   am
   170   102   103    2
   171   103   105    1
   172   151   145    1
   173   151   150    1
   174   159   158    1
   175   158   157    1
   176   145   146    1
   177   150   149    1
   178   157   156    1
   179   146   149    1
   180   146   147    1
   181   148   147    1
   182   156   153    1
   183   155   154    2
   184   153   154    1
   185   153   152    1
