@<TRIPOS>MOLECULE
tmp/1diwA00.pdb
 110 109 0 0 0
SMALL
GASTEIGER

@<TRIPOS>ATOM
      1  N         -3.0060   21.8740   66.8250 N.3   250  TYR250     -0.1241
      2  CA        -3.5400   20.8160   67.6690 C.3   250  TYR250      0.1605
      3  C         -4.2080   19.7680   66.8020 C.2   250  TYR250      0.2264
      4  O         -4.5170   20.0430   65.6580 O.2   250  TYR250     -0.2867
      5  CB        -4.5950   21.3930   68.6250 C.3   250  TYR250      0.0534
      6  CG        -3.8840   22.1140   69.7590 C.ar  250  TYR250     -0.0201
      7  CD1       -3.1890   21.3770   70.7260 C.ar  250  TYR250     -0.0009
      8  CD2       -3.8780   23.4900   69.8600 C.ar  250  TYR250     -0.0009
      9  CE1       -2.5100   22.0010   71.7640 C.ar  250  TYR250      0.0417
     10  CE2       -3.2130   24.1160   70.8910 C.ar  250  TYR250      0.0417
     11  CZ        -2.5300   23.3670   71.8460 C.ar  250  TYR250      0.1957
     12  OH        -1.9080   24.0270   72.8770 O.3   250  TYR250     -0.2866
     13  N         -4.7470   19.6860   73.4260 N.3   305  ARG305     -0.1231
     14  CA        -4.8150   20.7940   74.3670 C.3   305  ARG305      0.1694
     15  C         -5.0630   20.1840   75.7490 C.2   305  ARG305      0.2592
     16  O         -5.7790   19.2540   76.0900 O.2   305  ARG305     -0.2718
     17  CB        -5.7640   21.8920   73.9680 C.3   305  ARG305      0.0321
     18  CG        -7.2240   21.4780   74.0160 C.3   305  ARG305      0.0489
     19  CD        -8.1000   22.4260   73.2270 C.3   305  ARG305      0.2205
     20  NE        -7.4580   23.2300   72.2200 N.pl3 305  ARG305     -0.0865
     21  CZ        -7.6110   23.2550   70.9400 C.cat 305  ARG305      0.5346
     22  NH1       -8.4510   22.5640   70.1950 N.pl3 305  ARG305      0.1354
     23  NH2       -6.9720   24.0310   70.1010 N.pl3 305  ARG305      0.1354
     24  N         -4.2010   20.6380   76.6400 N.am  306  TYR306     -0.1962
     25  CA        -4.1070   20.1290   77.9970 C.3   306  TYR306      0.1771
     26  C         -5.2160   20.6820   78.8670 C.2   306  TYR306      0.2620
     27  O         -5.5680   20.1040   79.8890 O.2   306  TYR306     -0.2715
     28  CB        -2.7610   20.5310   78.6110 C.3   306  TYR306      0.0574
     29  CG        -2.6080   19.8890   79.9560 C.ar  306  TYR306     -0.0198
     30  CD1       -2.0390   18.6400   80.0910 C.ar  306  TYR306     -0.0009
     31  CD2       -3.0850   20.5450   81.0940 C.ar  306  TYR306     -0.0009
     32  CE1       -1.9310   18.0370   81.3280 C.ar  306  TYR306      0.0417
     33  CE2       -2.9890   19.9650   82.3380 C.ar  306  TYR306      0.0417
     34  CZ        -2.4030   18.7150   82.4380 C.ar  306  TYR306      0.1957
     35  OH        -2.2990   18.1470   83.7030 O.3   306  TYR306     -0.2866
     36  N         -5.7480   21.7930   78.3990 N.am  307  THR307     -0.1937
     37  CA        -6.8390   22.4080   79.1480 C.3   307  THR307      0.2013
     38  C         -7.4310   23.3810   78.1430 C.2   307  THR307      0.2484
     39  O         -6.6750   23.6870   77.2230 O.2   307  THR307     -0.2729
     40  CB        -6.2580   23.1390   80.3800 C.3   307  THR307      0.1807
     41  OG1       -7.2450   23.1490   81.4220 O.3   307  THR307     -0.2208
     42  CG2       -5.8100   24.5710   80.0940 C.3   307  THR307      0.0379
     43  N         -8.6120   23.8450   78.4730 N.am  308  PRO308     -0.2715
     44  CA        -9.3250   24.8270   77.7030 C.3   308  PRO308      0.1536
     45  C         -9.0590   26.2580   78.1510 C.2   308  PRO308      0.2598
     46  O         -8.4560   27.0240   77.3990 O.2   308  PRO308     -0.2715
     47  CB       -10.7940   24.4520   77.9840 C.3   308  PRO308      0.0310
     48  CG       -10.8370   23.6070   79.2070 C.3   308  PRO308      0.0237
     49  CD        -9.4090   23.4070   79.6330 C.3   308  PRO308      0.0939
     50  N         -9.5630   26.6470   79.3130 N.am  309  ASN309     -0.1973
     51  CA        -9.4580   27.9750   79.8600 C.3   309  ASN309      0.1688
     52  C         -9.6140   29.0580   78.7970 C.2   309  ASN309      0.2292
     53  O         -8.6450   29.5970   78.2590 O.2   309  ASN309     -0.2864
     54  CB        -8.1780   28.2250   80.6610 C.3   309  ASN309      0.1181
     55  CG        -8.5070   29.1800   81.8180 C.2   309  ASN309      0.2629
     56  OD1       -8.4500   30.3930   81.6060 O.2   309  ASN309     -0.2716
     57  ND2       -8.8600   28.6180   82.9700 N.am  309  ASN309     -0.0877
     58  N        -10.3110   30.9790   75.3880 N.3   311  GLU311     -0.1231
     59  CA       -10.1710   30.8790   73.9450 C.3   311  GLU311      0.1699
     60  C         -9.5210   29.5780   73.5060 C.2   311  GLU311      0.2592
     61  O         -8.4710   29.1480   73.9700 O.2   311  GLU311     -0.2718
     62  CB        -9.4440   32.1150   73.4290 C.3   311  GLU311      0.0402
     63  CG        -8.6460   31.9860   72.1500 C.3   311  GLU311      0.1161
     64  CD        -7.4390   32.9080   72.1220 C.2   311  GLU311      0.3649
     65  OE1       -7.0150   33.3710   73.2080 O.co2 311  GLU311     -0.2457
     66  OE2       -6.9110   33.1710   71.0230 O.co2 311  GLU311     -0.2457
     67  N        -10.1700   28.9340   72.5520 N.am  312  ILE312     -0.1966
     68  CA        -9.6580   27.7340   71.9150 C.3   312  ILE312      0.1727
     69  C         -8.9790   28.1400   70.6060 C.2   312  ILE312      0.2616
     70  O         -9.6280   28.6790   69.7090 O.2   312  ILE312     -0.2715
     71  CB       -10.7830   26.7370   71.6220 C.3   312  ILE312      0.0290
     72  CG1      -11.3260   26.1690   72.9430 C.3   312  ILE312      0.0022
     73  CG2      -10.3140   25.5810   70.7410 C.3   312  ILE312      0.0023
     74  CD1      -12.6820   25.5260   72.7410 C.3   312  ILE312      0.0001
     75  N         -7.6890   27.8990   70.4670 N.am  313  ASP313     -0.1971
     76  CA        -7.0180   28.2110   69.1940 C.3   313  ASP313      0.1709
     77  C         -6.6550   26.9310   68.4740 C.2   313  ASP313      0.2293
     78  O         -6.2700   25.9850   69.1540 O.2   313  ASP313     -0.2864
     79  CB        -5.7670   29.0610   69.3940 C.3   313  ASP313      0.1436
     80  CG        -6.0990   30.4140   69.9840 C.2   313  ASP313      0.3671
     81  OD1       -7.1290   31.0050   69.5840 O.co2 313  ASP313     -0.2456
     82  OD2       -5.3430   30.8820   70.8600 O.co2 313  ASP313     -0.2456
     83  N          0.6560   27.5920   70.6620 N.3   317  LYS317     -0.1245
     84  CA         1.5240   28.7070   71.0260 C.3   317  LYS317      0.1561
     85  C          2.6640   28.2530   71.9100 C.2   317  LYS317      0.2260
     86  O          2.5390   27.2860   72.6720 O.2   317  LYS317     -0.2867
     87  CB         0.7170   29.7870   71.7620 C.3   317  LYS317      0.0271
     88  CG        -0.3180   30.4760   70.8890 C.3   317  LYS317      0.0035
     89  CD        -1.0300   31.5830   71.6590 C.3   317  LYS317      0.0206
     90  CE        -2.0070   31.0010   72.6920 C.3   317  LYS317      0.1093
     91  NZ        -3.3320   30.7030   72.0900 N.3   317  LYS317     -0.1314
     92  N          2.2780   26.7960   75.6170 N.3   320  ASP320     -0.1225
     93  CA         1.0240   26.0930   75.8000 C.3   320  ASP320      0.1805
     94  C          1.3250   24.7950   76.5430 C.2   320  ASP320      0.2597
     95  O          2.3670   24.2440   76.2010 O.2   320  ASP320     -0.2718
     96  CB         0.4530   25.7070   74.4260 C.3   320  ASP320      0.1424
     97  CG        -0.4070   26.7700   73.7870 C.2   320  ASP320      0.3668
     98  OD1       -0.4460   27.8740   74.3570 O.co2 320  ASP320     -0.2456
     99  OD2       -1.0310   26.4900   72.7370 O.co2 320  ASP320     -0.2456
    100  N          0.4900   24.3200   77.4220 N.am  321  PHE321     -0.1976
    101  CA         0.6370   23.0250   78.0750 C.3   321  PHE321      0.1639
    102  C         -0.1180   22.0470   77.2010 C.2   321  PHE321      0.2290
    103  O         -1.2320   22.3150   76.7610 O.2   321  PHE321     -0.2864
    104  CB         0.1030   23.0010   79.5190 C.3   321  PHE321      0.0560
    105  CG         1.0700   23.7870   80.3860 C.ar  321  PHE321     -0.0200
    106  CD1        2.2100   23.1860   80.8420 C.ar  321  PHE321     -0.0042
    107  CD2        0.8340   25.1200   80.6740 C.ar  321  PHE321     -0.0042
    108  CE1        3.1550   23.8780   81.6050 C.ar  321  PHE321     -0.0003
    109  CE2        1.7580   25.8220   81.4220 C.ar  321  PHE321     -0.0003
    110  CZ         2.9190   25.2100   81.8820 C.ar  321  PHE321     -0.0000
@<TRIPOS>BOND
     1     4     3    2
     2     3     2    1
     3     1     2    1
     4     2     5    1
     5    77    78    2
     6    77    76    1
     7     5     6    1
     8    76    79    1
     9    76    75    1
    10    79    80    1
    11    81    80   ar
    12    70    69    2
    13     6     8   ar
    14     6     7   ar
    15     8    10   ar
    16    80    82   ar
    17    23    21    1
    18    22    21    1
    19    75    69   am
    20    69    68    1
    21    83    84    1
    22     7     9   ar
    23    73    71    1
    24    88    89    1
    25    88    87    1
    26    10    11   ar
    27    21    20    2
    28    66    64   ar
    29    84    87    1
    30    84    85    1
    31    71    68    1
    32    71    72    1
    33    89    90    1
    34     9    11   ar
    35    11    12    1
    36    85    86    2
    37    68    67    1
    38    91    90    1
    39    64    63    1
    40    64    65   ar
    41    63    62    1
    42    20    19    1
    43    67    60   am
    44    99    97   ar
    45    74    72    1
    46    19    18    1
    47    13    14    1
    48    62    59    1
    49    60    59    1
    50    60    61    2
    51    97    98   ar
    52    97    96    1
    53    59    58    1
    54    17    18    1
    55    17    14    1
    56    14    15    1
    57    96    93    1
    58    92    93    1
    59    15    16    2
    60    15    24   am
    61    93    94    1
    62    95    94    2
    63    94   100   am
    64    24    25    1
    65   103   102    2
    66   102   101    1
    67    39    38    2
    68    46    45    2
    69   100   101    1
    70    44    47    1
    71    44    45    1
    72    44    43    1
    73    47    48    1
    74    25    28    1
    75    25    26    1
    76   101   104    1
    77    38    43   am
    78    38    37    1
    79    45    50   am
    80    53    52    2
    81    36    26   am
    82    36    37    1
    83    43    49    1
    84    28    29    1
    85    52    51    1
    86    26    27    2
    87    37    40    1
    88    48    49    1
    89    50    51    1
    90   104   105    1
    91    51    54    1
    92    29    30   ar
    93    29    31   ar
    94    30    32   ar
    95    42    40    1
    96    40    41    1
    97   105   107   ar
    98   105   106   ar
    99    54    55    1
   100   107   109   ar
   101   106   108   ar
   102    31    33   ar
   103    32    34   ar
   104   109   110   ar
   105   108   110   ar
   106    56    55    2
   107    55    57   am
   108    33    34   ar
   109    34    35    1
