@<TRIPOS>MOLECULE
tmp/1dj2A00.pdb
 146 140 0 0 0
SMALL
GASTEIGER

@<TRIPOS>ATOM
      1  N         27.7530   71.2270   57.4660 N.3    16  GLY16      -0.1210
      2  CA        27.4770   72.3840   56.6310 C.3    16  GLY16       0.1956
      3  C         28.1310   72.7740   55.3180 C.2    16  GLY16       0.2612
      4  O         27.4190   73.0730   54.3520 O.2    16  GLY16      -0.2717
      5  N         29.4540   72.8390   55.2700 N.am   17  ASP17      -0.1959
      6  CA        30.1080   73.2910   54.0510 C.3    17  ASP17       0.1840
      7  C         30.7810   72.2370   53.2070 C.2    17  ASP17       0.2622
      8  O         31.7830   72.5080   52.5410 O.2    17  ASP17      -0.2715
      9  CB        31.0920   74.3980   54.3970 C.3    17  ASP17       0.1450
     10  CG        30.4500   75.4880   55.2020 C.2    17  ASP17       0.3671
     11  OD1       29.7070   76.2980   54.6070 O.co2  17  ASP17      -0.2456
     12  OD2       30.6390   75.5080   56.4350 O.co2  17  ASP17      -0.2456
     13  N         30.1770   71.0590   53.1630 N.am   18  GLU18      -0.1963
     14  CA        30.7240   69.9460   52.4060 C.3    18  GLU18       0.1733
     15  C         31.1590   70.3180   50.9880 C.2    18  GLU18       0.2617
     16  O         32.3340   70.1790   50.6440 O.2    18  GLU18      -0.2715
     17  CB        29.7290   68.7870   52.3750 C.3    18  GLU18       0.0429
     18  CG        29.3800   68.2090   53.7430 C.3    18  GLU18       0.1163
     19  CD        28.4420   69.0900   54.5480 C.2    18  GLU18       0.3649
     20  OE1       28.5900   69.1320   55.7840 O.co2  18  GLU18      -0.2457
     21  OE2       27.5500   69.7290   53.9540 O.co2  18  GLU18      -0.2457
     22  N         30.2340   70.8400   50.1870 N.am   19  GLY19      -0.1940
     23  CA        30.5660   71.2070   48.8200 C.3    19  GLY19       0.2014
     24  C         29.4900   70.7380   47.8580 C.2    19  GLY19       0.2639
     25  O         29.7810   70.3400   46.7290 O.2    19  GLY19      -0.2714
     26  N         28.2400   70.8030   48.3110 N.am   20  LYS20      -0.1963
     27  CA        27.0890   70.3780   47.5190 C.3    20  LYS20       0.1728
     28  C         26.8580   71.2840   46.3260 C.2    20  LYS20       0.2617
     29  O         26.5390   70.8060   45.2400 O.2    20  LYS20      -0.2715
     30  CB        25.8230   70.3710   48.3760 C.3    20  LYS20       0.0311
     31  CG        26.0310   69.9630   49.8160 C.3    20  LYS20       0.0038
     32  CD        24.7320   70.0840   50.5840 C.3    20  LYS20       0.0206
     33  CE        24.9960   70.5290   52.0040 C.3    20  LYS20       0.1093
     34  NZ        25.7070   71.8330   52.0120 N.3    20  LYS20      -0.1314
     35  N         26.9540   72.5930   46.5580 N.am   21  GLY21      -0.1940
     36  CA        26.7480   73.5660   45.4980 C.3    21  GLY21       0.2014
     37  C         27.4780   73.1780   44.2330 C.2    21  GLY21       0.2638
     38  O         26.8860   73.1090   43.1550 O.2    21  GLY21      -0.2714
     39  N         28.7680   72.9020   44.3790 N.am   22  LYS22      -0.1977
     40  CA        29.5960   72.4930   43.2570 C.3    22  LYS22       0.1596
     41  C         28.9820   71.2900   42.5470 C.2    22  LYS22       0.2287
     42  O         28.8320   71.2850   41.3290 O.2    22  LYS22      -0.2864
     43  CB        30.9930   72.1250   43.7640 C.3    22  LYS22       0.0298
     44  CG        31.9030   71.4720   42.7270 C.3    22  LYS22       0.0038
     45  CD        33.1330   70.8790   43.3990 C.3    22  LYS22       0.0206
     46  CE        34.0160   70.1180   42.4240 C.3    22  LYS22       0.1093
     47  NZ        35.0580   69.3730   43.1760 N.3    22  LYS22      -0.1314
     48  N         25.0710   79.1560   51.5100 N.3    44  GLY44      -0.1210
     49  CA        26.1480   79.8500   50.8280 C.3    44  GLY44       0.1956
     50  C         26.8300   78.9500   49.8140 C.2    44  GLY44       0.2612
     51  O         28.0430   78.7780   49.8390 O.2    44  GLY44      -0.2717
     52  N         26.0340   78.3530   48.9360 N.am   45  HIS45      -0.1961
     53  CA        26.5380   77.4530   47.9050 C.3    45  HIS45       0.1787
     54  C         27.4290   78.1820   46.8930 C.2    45  HIS45       0.2620
     55  O         26.9250   78.8930   46.0290 O.2    45  HIS45      -0.2715
     56  CB        25.3580   76.8030   47.1710 C.3    45  HIS45       0.0785
     57  CG        24.4040   76.0750   48.0680 C.ar   45  HIS45       0.0821
     58  ND1       24.2600   76.3700   49.4090 N.ar   45  HIS45      -0.2267
     59  CD2       23.5440   75.0590   47.8150 C.ar   45  HIS45       0.1154
     60  CE1       23.3540   75.5670   49.9400 C.ar   45  HIS45       0.1986
     61  NE2       22.9050   74.7620   48.9950 N.ar   45  HIS45      -0.2212
     62  N         28.7430   77.9830   46.9820 N.am   46  THR46      -0.1951
     63  CA        29.6840   78.6280   46.0620 C.3    46  THR46       0.1897
     64  C         29.9350   77.7710   44.8140 C.2    46  THR46       0.2313
     65  O         30.1950   76.5680   44.9120 O.2    46  THR46      -0.2863
     66  CB        31.0240   78.9280   46.7570 C.3    46  THR46       0.1794
     67  OG1       30.8030   79.7480   47.9110 O.3    46  THR46      -0.2208
     68  CG2       31.9660   79.6360   45.8070 C.3    46  THR46       0.0378
     69  N         31.6350   77.8790   40.5130 N.3    48  TYR48      -0.1241
     70  CA        32.4360   78.5640   39.5020 C.3    48  TYR48       0.1605
     71  C         32.0400   78.0480   38.1240 C.2    48  TYR48       0.2264
     72  O         32.0830   76.8450   37.8770 O.2    48  TYR48      -0.2867
     73  CB        33.9270   78.3000   39.7240 C.3    48  TYR48       0.0534
     74  CG        34.4680   78.8000   41.0420 C.ar   48  TYR48      -0.0201
     75  CD1       34.4960   77.9780   42.1620 C.ar   48  TYR48      -0.0009
     76  CD2       34.9620   80.0930   41.1680 C.ar   48  TYR48      -0.0009
     77  CE1       35.0050   78.4300   43.3810 C.ar   48  TYR48       0.0417
     78  CE2       35.4730   80.5560   42.3810 C.ar   48  TYR48       0.0417
     79  CZ        35.4910   79.7190   43.4840 C.ar   48  TYR48       0.1957
     80  OH        35.9830   80.1710   44.6900 O.3    48  TYR48      -0.2866
     81  N         44.7760   74.8040   53.8520 N.3   297  ALA297     -0.1231
     82  CA        44.6660   74.1410   52.5590 C.3   297  ALA297      0.1694
     83  C         43.2240   74.0610   52.0650 C.2   297  ALA297      0.2592
     84  O         42.9810   73.8810   50.8710 O.2   297  ALA297     -0.2718
     85  CB        45.2750   72.7620   52.6300 C.3   297  ALA297      0.0304
     86  N         42.2760   74.1760   52.9880 N.am  298  GLY298     -0.1957
     87  CA        40.8710   74.1140   52.6260 C.3   298  GLY298      0.1869
     88  C         40.2110   75.4730   52.5030 C.2   298  GLY298      0.2309
     89  O         39.1300   75.5890   51.9180 O.2   298  GLY298     -0.2863
     90  N         37.2290   78.6540   60.8300 N.3   309  ARG309     -0.1245
     91  CA        36.3060   77.5660   61.1060 C.3   309  ARG309      0.1563
     92  C         37.0080   76.4210   61.8230 C.2   309  ARG309      0.2260
     93  O         38.2030   76.2110   61.6410 O.2   309  ARG309     -0.2867
     94  CB        35.6360   77.0860   59.8120 C.3   309  ARG309      0.0307
     95  CG        34.7310   78.1440   59.1910 C.3   309  ARG309      0.0489
     96  CD        33.5690   77.5350   58.4370 C.3   309  ARG309      0.2205
     97  NE        33.8370   77.3590   57.0150 N.pl3 309  ARG309     -0.0865
     98  CZ        33.3270   78.1340   56.0620 C.cat 309  ARG309      0.5346
     99  NH1       32.5300   79.1500   56.3860 N.pl3 309  ARG309      0.1354
    100  NH2       33.5830   77.8750   54.7860 N.pl3 309  ARG309      0.1354
    101  N         34.5330   65.1770   49.0170 N.3   334  THR334     -0.1203
    102  CA        35.0360   66.4640   48.5720 C.3   334  THR334      0.1994
    103  C         36.3350   66.8820   49.2510 C.2   334  THR334      0.2617
    104  O         36.7960   66.2450   50.2000 O.2   334  THR334     -0.2717
    105  CB        33.9860   67.5750   48.7960 C.3   334  THR334      0.1784
    106  OG1       33.7650   67.7660   50.2010 O.3   334  THR334     -0.2211
    107  CG2       32.6740   67.2070   48.1210 C.3   334  THR334      0.0376
    108  N         36.9210   67.9590   48.7360 N.am  335  LYS335     -0.1979
    109  CA        38.1560   68.5240   49.2640 C.3   335  LYS335      0.1596
    110  C         39.2790   67.5280   49.5390 C.2   335  LYS335      0.2287
    111  O         40.0290   67.6870   50.5100 O.2   335  LYS335     -0.2864
    112  CB        37.8650   69.3400   50.5280 C.3   335  LYS335      0.0298
    113  CG        37.0660   70.6120   50.2860 C.3   335  LYS335      0.0038
    114  CD        37.0970   71.5220   51.5050 C.3   335  LYS335      0.0206
    115  CE        36.3820   72.8450   51.2570 C.3   335  LYS335      0.1093
    116  NZ        37.0620   73.6970   50.2460 N.3   335  LYS335     -0.1314
    117  N         41.9290   67.0900   47.8090 N.3   337  ASP337     -0.1225
    118  CA        43.1480   67.8520   47.5570 C.3   337  ASP337      0.1805
    119  C         43.6990   68.6340   48.7500 C.2   337  ASP337      0.2597
    120  O         44.8240   69.1370   48.7000 O.2   337  ASP337     -0.2718
    121  CB        42.9460   68.7940   46.3590 C.3   337  ASP337      0.1424
    122  CG        41.8100   69.7940   46.5640 C.2   337  ASP337      0.3668
    123  OD1       41.8980   70.9140   46.0220 O.co2 337  ASP337     -0.2456
    124  OD2       40.8090   69.4680   47.2280 O.co2 337  ASP337     -0.2456
    125  N         42.9170   68.7480   49.8160 N.am  338  VAL338     -0.1980
    126  CA        43.3580   69.4740   51.0020 C.3   338  VAL338      0.1595
    127  C         44.3650   68.6550   51.8120 C.2   338  VAL338      0.2287
    128  O         45.1780   69.2040   52.5580 O.2   338  VAL338     -0.2864
    129  CB        42.1540   69.8560   51.8870 C.3   338  VAL338      0.0276
    130  CG1       42.6100   70.5730   53.1450 C.3   338  VAL338      0.0022
    131  CG2       41.2060   70.7360   51.1090 C.3   338  VAL338      0.0022
    132  N         36.0640   65.0880   44.8170 N.3   418  GLY418     -0.1225
    133  CA        36.4320   66.4610   44.5320 C.3   418  GLY418      0.1811
    134  C         37.8880   66.7310   44.8350 C.2   418  GLY418      0.2280
    135  O         38.3820   66.3630   45.9050 O.2   418  GLY418     -0.2866
    136  N         39.3670   70.0240   43.9550 N.3   420  GLY420     -0.1210
    137  CA        39.5210   71.4260   43.6050 C.3   420  GLY420      0.1940
    138  C         38.1750   72.1260   43.5340 C.2   420  GLY420      0.2453
    139  O         37.1650   71.4870   43.2420 O.2   420  GLY420     -0.2732
    140  N         38.1190   73.4410   43.8000 N.am  421  PRO421     -0.2728
    141  CA        36.8560   74.1840   43.7530 C.3   421  PRO421      0.1401
    142  C         36.2670   74.3330   42.3480 C.2   421  PRO421      0.2269
    143  O         35.1240   74.7580   42.1880 O.2   421  PRO421     -0.2865
    144  CB        37.2450   75.5340   44.3490 C.3   421  PRO421      0.0296
    145  CG        38.6600   75.6850   43.9150 C.3   421  PRO421      0.0237
    146  CD        39.2270   74.3250   44.1980 C.3   421  PRO421      0.0939
@<TRIPOS>BOND
     1    72    71    2
     2    71    70    1
     3    70    73    1
     4    70    69    1
     5    73    74    1
     6    74    76   ar
     7    74    75   ar
     8    76    78   ar
     9    42    41    2
    10    75    77   ar
    11   143   142    2
    12   142   141    1
    13    78    79   ar
    14    46    47    1
    15    46    45    1
    16    41    40    1
    17    44    45    1
    18    44    43    1
    19    38    37    2
    20   139   138    2
    21    40    43    1
    22    40    39    1
    23    77    79   ar
    24    79    80    1
    25   138   137    1
    26   138   140   am
    27   137   136    1
    28   141   140    1
    29   141   144    1
    30   140   146    1
    31   145   146    1
    32   145   144    1
    33    37    39   am
    34    37    36    1
    35   133   132    1
    36   133   134    1
    37    64    65    2
    38    64    63    1
    39   134   135    2
    40    29    28    2
    41    36    35    1
    42    68    66    1
    43   123   122   ar
    44    55    54    2
    45    63    66    1
    46    63    62    1
    47    28    35   am
    48    28    27    1
    49   121   122    1
    50   121   118    1
    51   122   124   ar
    52    25    24    2
    53    66    67    1
    54    54    62   am
    55    54    53    1
    56    56    53    1
    57    56    57    1
    58    27    26    1
    59    27    30    1
    60   118   117    1
    61   118   119    1
    62    59    57   ar
    63    59    61   ar
    64    24    26   am
    65    24    23    1
    66    53    52    1
    67    57    58   ar
    68   107   105    1
    69    30    31    1
    70   102   105    1
    71   102   101    1
    72   102   103    1
    73   120   119    2
    74   108   103   am
    75   108   109    1
    76   119   125   am
    77   105   106    1
    78    23    22    1
    79    52    50   am
    80    61    60   ar
    81   103   104    2
    82   109   110    1
    83   109   112    1
    84    58    60   ar
    85   110   111    2
    86    50    51    2
    87    50    49    1
    88   125   126    1
    89    31    32    1
    90    22    15   am
    91   116   115    1
    92   113   112    1
    93   113   114    1
    94    32    33    1
    95    16    15    2
    96    49    48    1
    97    84    83    2
    98    15    14    1
    99   126   127    1
   100   126   129    1
   101   131   129    1
   102   115   114    1
   103   127   128    2
   104   129   130    1
   105    89    88    2
   106    33    34    1
   107    83    82    1
   108    83    86   am
   109    17    14    1
   110    17    18    1
   111    14    13    1
   112    88    87    1
   113     8     7    2
   114    82    85    1
   115    82    81    1
   116    87    86    1
   117    13     7   am
   118     7     6    1
   119    18    19    1
   120    21    19   ar
   121     6     9    1
   122     6     5    1
   123     4     3    2
   124     9    10    1
   125    19    20   ar
   126    11    10   ar
   127   100    98    1
   128    10    12   ar
   129     5     3   am
   130     3     2    1
   131    98    99    1
   132    98    97    2
   133     2     1    1
   134    97    96    1
   135    96    95    1
   136    95    94    1
   137    94    91    1
   138    90    91    1
   139    91    92    1
   140    93    92    2
