@<TRIPOS>MOLECULE
tmp/1dj3A00.pdb
 166 158 0 0 0
SMALL
GASTEIGER

@<TRIPOS>ATOM
      1  N        114.2490   85.5110   16.0110 N.3    20  ASP20      -0.1225
      2  CA       113.3260   86.6030   16.2700 C.3    20  ASP20       0.1805
      3  C        112.0100   86.5810   15.4980 C.2    20  ASP20       0.2598
      4  O        111.9840   86.9020   14.3150 O.2    20  ASP20      -0.2718
      5  CB       114.0590   87.9220   15.9860 C.3    20  ASP20       0.1424
      6  CG       115.5120   87.9130   16.4740 C.2    20  ASP20       0.3668
      7  OD1      116.3450   87.1670   15.8920 O.co2  20  ASP20      -0.2456
      8  OD2      115.8190   88.6500   17.4390 O.co2  20  ASP20      -0.2456
      9  N        110.9020   86.2990   16.1790 N.am   21  GLU21      -0.1965
     10  CA       109.6000   86.2800   15.5060 C.3    21  GLU21       0.1733
     11  C        108.8330   87.5910   15.6860 C.2    21  GLU21       0.2617
     12  O        107.8140   87.8130   15.0380 O.2    21  GLU21      -0.2715
     13  CB       108.7280   85.1130   15.9830 C.3    21  GLU21       0.0429
     14  CG       109.3720   83.7330   15.8900 C.3    21  GLU21       0.1163
     15  CD       110.1790   83.3700   17.1250 C.2    21  GLU21       0.3649
     16  OE1      110.1880   84.1490   18.1050 O.co2  21  GLU21      -0.2457
     17  OE2      110.7910   82.2860   17.1230 O.co2  21  GLU21      -0.2457
     18  N        109.3190   88.4640   16.5590 N.am   22  GLY22      -0.1940
     19  CA       108.6380   89.7270   16.7790 C.3    22  GLY22       0.2014
     20  C        107.6670   89.6880   17.9390 C.2    22  GLY22       0.2639
     21  O        106.5910   90.2810   17.8770 O.2    22  GLY22      -0.2714
     22  N        108.0620   88.9970   19.0060 N.am   23  LYS23      -0.1963
     23  CA       107.2340   88.8720   20.2050 C.3    23  LYS23       0.1728
     24  C        107.0510   90.2460   20.8390 C.2    23  LYS23       0.2617
     25  O        105.9410   90.6270   21.2050 O.2    23  LYS23      -0.2715
     26  CB       107.8930   87.9430   21.2300 C.3    23  LYS23       0.0311
     27  CG       108.5910   86.7190   20.6570 C.3    23  LYS23       0.0038
     28  CD       109.2760   85.9400   21.7650 C.3    23  LYS23       0.0206
     29  CE       110.4800   85.1870   21.2410 C.3    23  LYS23       0.1093
     30  NZ       111.5460   86.1210   20.7820 N.3    23  LYS23      -0.1314
     31  N        108.1570   90.9700   20.9800 N.am   24  GLY24      -0.1940
     32  CA       108.1180   92.2980   21.5700 C.3    24  GLY24       0.2014
     33  C        106.9800   93.1700   21.0770 C.2    24  GLY24       0.2638
     34  O        106.2900   93.8030   21.8760 O.2    24  GLY24      -0.2714
     35  N        106.7930   93.2210   19.7610 N.am   25  LYS25      -0.1977
     36  CA       105.7200   94.0210   19.1790 C.3    25  LYS25       0.1596
     37  C        104.3840   93.6810   19.8400 C.2    25  LYS25       0.2287
     38  O        103.6350   94.5740   20.2340 O.2    25  LYS25      -0.2864
     39  CB       105.6210   93.7730   17.6690 C.3    25  LYS25       0.0298
     40  CG       104.4230   94.4470   17.0030 C.3    25  LYS25       0.0038
     41  CD       104.1040   93.7990   15.6670 C.3    25  LYS25       0.0206
     42  CE       102.8050   94.3280   15.0780 C.3    25  LYS25       0.1093
     43  NZ       102.4270   93.5280   13.8880 N.3    25  LYS25      -0.1314
     44  N        119.2000   88.9090   23.7290 N.3    46  ALA46      -0.1231
     45  CA       118.0500   89.0190   22.8400 C.3    46  ALA46       0.1694
     46  C        117.9830   90.4040   22.1850 C.2    46  ALA46       0.2593
     47  O        118.9880   90.9130   21.6740 O.2    46  ALA46      -0.2718
     48  CB       116.7640   88.7130   23.6070 C.3    46  ALA46       0.0304
     49  N        116.8010   91.0100   22.1900 N.am   47  GLY47      -0.1942
     50  CA       116.6540   92.3180   21.5840 C.3    47  GLY47       0.2014
     51  C        115.3120   92.4690   20.9080 C.2    47  GLY47       0.2639
     52  O        115.1400   92.0820   19.7540 O.2    47  GLY47      -0.2714
     53  N        114.3430   92.9840   21.6510 N.am   48  HIS48      -0.1959
     54  CA       113.0000   93.1900   21.1270 C.3    48  HIS48       0.1787
     55  C        112.9100   94.5770   20.4920 C.2    48  HIS48       0.2620
     56  O        113.3690   95.5520   21.0800 O.2    48  HIS48      -0.2715
     57  CB       111.9820   93.0540   22.2630 C.3    48  HIS48       0.0785
     58  CG       112.0310   91.7300   22.9630 C.ar   48  HIS48       0.0821
     59  ND1      110.8960   91.0290   23.3140 N.ar   48  HIS48      -0.2267
     60  CD2      113.0790   90.9720   23.3620 C.ar   48  HIS48       0.1154
     61  CE1      111.2440   89.8960   23.8970 C.ar   48  HIS48       0.1986
     62  NE2      112.5600   89.8350   23.9370 N.ar   48  HIS48      -0.2212
     63  N        112.3520   94.6580   19.2860 N.am   49  THR49      -0.1951
     64  CA       112.2110   95.9440   18.6040 C.3    49  THR49       0.1897
     65  C        110.7390   96.3580   18.5460 C.2    49  THR49       0.2313
     66  O        109.9120   95.6640   17.9470 O.2    49  THR49      -0.2863
     67  CB       112.8000   95.9110   17.1700 C.3    49  THR49       0.1794
     68  OG1      114.1940   95.5690   17.2140 O.3    49  THR49      -0.2208
     69  CG2      112.6450   97.2700   16.4980 C.3    49  THR49       0.0378
     70  N        107.8100   99.9510   18.4150 N.3    51  TYR51      -0.1241
     71  CA       107.6050  101.3560   18.0330 C.3    51  TYR51       0.1605
     72  C        106.4200  101.9650   18.7650 C.2    51  TYR51       0.2264
     73  O        105.3830  101.3280   18.8980 O.2    51  TYR51      -0.2867
     74  CB       107.3560  101.4890   16.5250 C.3    51  TYR51       0.0534
     75  CG       108.5100  101.0540   15.6510 C.ar   51  TYR51      -0.0201
     76  CD1      109.2770  101.9900   14.9630 C.ar   51  TYR51      -0.0009
     77  CD2      108.8380   99.7050   15.5160 C.ar   51  TYR51      -0.0009
     78  CE1      110.3450  101.5910   14.1650 C.ar   51  TYR51       0.0417
     79  CE2      109.9040   99.2980   14.7250 C.ar   51  TYR51       0.0417
     80  CZ       110.6520  100.2450   14.0560 C.ar   51  TYR51       0.1957
     81  OH       111.7280   99.8410   13.3050 O.3    51  TYR51      -0.2866
     82  N        111.6480   85.0950   26.0760 N.3   230  GLY230     -0.1225
     83  CA       112.9590   85.5490   25.6510 C.3   230  GLY230      0.1811
     84  C        113.2560   85.2270   24.2030 C.2   230  GLY230      0.2280
     85  O        113.4750   86.1160   23.3800 O.2   230  GLY230     -0.2866
     86  N        112.9330   91.5630    2.1340 N.3   300  ALA300     -0.1231
     87  CA       111.6180   92.0830    2.4730 C.3   300  ALA300      0.1694
     88  C        111.3920   92.1260    3.9790 C.2   300  ALA300      0.2593
     89  O        110.8080   93.0820    4.4990 O.2   300  ALA300     -0.2718
     90  CB       110.5400   91.2500    1.7990 C.3   300  ALA300      0.0304
     91  N        111.8360   91.0760    4.6650 N.am  301  GLY301     -0.1942
     92  CA       111.6830   90.9950    6.1080 C.3   301  GLY301      0.2014
     93  C        112.7770   91.7330    6.8550 C.2   301  GLY301      0.2638
     94  O        112.6130   92.0890    8.0300 O.2   301  GLY301     -0.2714
     95  N        113.8620   92.0230    6.1390 N.am  302  MET302     -0.1976
     96  CA       115.0240   92.7210    6.6810 C.3   302  MET302      0.1605
     97  C        115.7430   91.8270    7.6810 C.2   302  MET302      0.2287
     98  O        116.2060   92.2940    8.7240 O.2   302  MET302     -0.2864
     99  CB       114.6210   94.0430    7.3480 C.3   302  MET302      0.0413
    100  CG       113.8540   95.0090    6.4560 C.3   302  MET302      0.0598
    101  SD       113.3920   96.4640    7.4030 S.3   302  MET302     -0.1393
    102  CE       111.9450   95.8530    8.2930 C.3   302  MET302      0.0692
    103  N        120.8850   93.1130   13.8640 N.3   306  THR306     -0.1218
    104  CA       120.6950   94.5100   14.2350 C.3   306  THR306      0.1862
    105  C        122.0330   95.2090   14.4800 C.2   306  THR306      0.2287
    106  O        122.1530   96.4230   14.2770 O.2   306  THR306     -0.2866
    107  CB       119.7710   94.6490   15.4750 C.3   306  THR306      0.1770
    108  OG1      120.1360   93.6880   16.4760 O.3   306  THR306     -0.2211
    109  CG2      118.3150   94.4330   15.0790 C.3   306  THR306      0.0375
    110  N        120.1950   86.4700    8.1360 N.3   312  ARG312     -0.1245
    111  CA       119.7000   85.2910    8.8260 C.3   312  ARG312      0.1563
    112  C        119.2310   84.3100    7.7570 C.2   312  ARG312      0.2260
    113  O        118.6380   84.7110    6.7570 O.2   312  ARG312     -0.2867
    114  CB       118.5370   85.6540    9.7530 C.3   312  ARG312      0.0307
    115  CG       118.7990   86.8460   10.6680 C.3   312  ARG312      0.0489
    116  CD       117.8110   86.8610   11.8230 C.3   312  ARG312      0.2205
    117  NE       117.2920   88.1940   12.1290 N.pl3 312  ARG312     -0.0865
    118  CZ       117.8680   89.0660   12.9530 C.cat 312  ARG312      0.5346
    119  NH1      119.0110   88.7680   13.5620 N.pl3 312  ARG312      0.1354
    120  NH2      117.2660   90.2170   13.2150 N.pl3 312  ARG312      0.1354
    121  N        103.0000   86.4970   12.5350 N.3   337  THR337     -0.1203
    122  CA       103.6690   87.7410   12.1810 C.3   337  THR337      0.1994
    123  C        104.2610   87.7980   10.7820 C.2   337  THR337      0.2617
    124  O        104.3200   86.7940   10.0590 O.2   337  THR337     -0.2717
    125  CB       104.7790   88.0870   13.1890 C.3   337  THR337      0.1784
    126  OG1      105.6950   86.9880   13.2970 O.3   337  THR337     -0.2211
    127  CG2      104.1760   88.4110   14.5550 C.3   337  THR337      0.0376
    128  N        104.7060   89.0040   10.4260 N.am  338  LYS338     -0.1979
    129  CA       105.3240   89.3000    9.1360 C.3   338  LYS338      0.1596
    130  C        104.6370   88.6580    7.9280 C.2   338  LYS338      0.2287
    131  O        105.2910   88.0290    7.0910 O.2   338  LYS338     -0.2864
    132  CB       106.8180   88.9330    9.1670 C.3   338  LYS338      0.0298
    133  CG       107.6630   89.8330   10.0630 C.3   338  LYS338      0.0038
    134  CD       109.1590   89.5590    9.9220 C.3   338  LYS338      0.0206
    135  CE       109.9750   90.7290   10.4670 C.3   338  LYS338      0.1093
    136  NZ       111.4450   90.5230   10.4290 N.3   338  LYS338     -0.1314
    137  N        103.0570   90.3750    5.7060 N.3   340  ASP340     -0.1225
    138  CA       103.2940   91.3330    4.6320 C.3   340  ASP340      0.1805
    139  C        104.5500   91.0170    3.8240 C.2   340  ASP340      0.2597
    140  O        104.7300   91.5220    2.7170 O.2   340  ASP340     -0.2718
    141  CB       103.3960   92.7470    5.2120 C.3   340  ASP340      0.1424
    142  CG       104.5210   92.8890    6.2230 C.2   340  ASP340      0.3668
    143  OD1      105.3940   93.7570    6.0160 O.co2 340  ASP340     -0.2456
    144  OD2      104.5260   92.1490    7.2300 O.co2 340  ASP340     -0.2456
    145  N        105.4210   90.1880    4.3880 N.am  341  VAL341     -0.1980
    146  CA       106.6650   89.8040    3.7330 C.3   341  VAL341      0.1595
    147  C        106.4410   88.7640    2.6380 C.2   341  VAL341      0.2287
    148  O        107.2520   88.6390    1.7190 O.2   341  VAL341     -0.2864
    149  CB       107.6960   89.2720    4.7680 C.3   341  VAL341      0.0276
    150  CG1      109.0090   88.9110    4.0920 C.3   341  VAL341      0.0022
    151  CG2      107.9430   90.3130    5.8430 C.3   341  VAL341      0.0022
    152  N        100.3210   89.8840   12.1340 N.3   421  GLY421     -0.1225
    153  CA       101.1640   91.0480   11.9330 C.3   421  GLY421      0.1811
    154  C        101.4340   91.3350   10.4690 C.2   421  GLY421      0.2280
    155  O        101.8430   90.4470    9.7160 O.2   421  GLY421     -0.2866
    156  N        103.1200   94.4080    9.6490 N.3   423  GLY423     -0.1210
    157  CA       104.0020   95.5580    9.7060 C.3   423  GLY423      0.1940
    158  C        104.6640   95.6770   11.0610 C.2   423  GLY423      0.2453
    159  O        104.1350   95.1830   12.0510 O.2   423  GLY423     -0.2732
    160  N        105.8480   96.2970   11.1360 N.am  424  PRO424     -0.2728
    161  CA       106.5540   96.4560   12.4090 C.3   424  PRO424      0.1401
    162  C        105.8800   97.4260   13.3800 C.2   424  PRO424      0.2269
    163  O        106.1300   97.3730   14.5850 O.2   424  PRO424     -0.2865
    164  CB       107.9290   96.9650   11.9730 C.3   424  PRO424      0.0296
    165  CG       107.6280   97.7230   10.7170 C.3   424  PRO424      0.0237
    166  CD       106.6610   96.8030   10.0170 C.3   424  PRO424      0.0939
@<TRIPOS>BOND
     1   148   147    2
     2    90    87    1
     3    86    87    1
     4    87    88    1
     5   147   146    1
     6   140   139    2
     7   146   145    1
     8   146   149    1
     9   139   145   am
    10   139   138    1
    11    88    89    2
    12    88    91   am
    13   150   149    1
    14   138   141    1
    15   138   137    1
    16    91    92    1
    17   149   151    1
    18   141   142    1
    19   143   142   ar
    20    92    93    1
    21    95    96    1
    22    95    93   am
    23   142   144   ar
    24   100    99    1
    25   100   101    1
    26    96    99    1
    27    96    97    1
    28   113   112    2
    29    93    94    2
    30   131   130    2
    31   101   102    1
    32    97    98    2
    33   112   111    1
    34   130   129    1
    35   110   111    1
    36   111   114    1
    37   129   132    1
    38   129   128    1
    39   132   133    1
    40   156   157    1
    41   157   158    1
    42   155   154    2
    43   114   115    1
    44   134   133    1
    45   134   135    1
    46   166   165    1
    47   166   160    1
    48   124   123    2
    49   128   123   am
    50   136   135    1
    51   154   153    1
    52   115   116    1
    53   165   164    1
    54   123   122    1
    55   158   160   am
    56   158   159    2
    57   160   161    1
    58   116   117    1
    59   153   152    1
    60   164   161    1
    61   117   118    2
    62   122   121    1
    63   122   125    1
    64   161   162    1
    65   118   120    1
    66   118   119    1
    67   125   126    1
    68   125   127    1
    69    81    80    1
    70   162   163    2
    71   103   104    1
    72    43    42    1
    73    80    78   ar
    74    80    79   ar
    75    78    76   ar
    76   104   105    1
    77   104   107    1
    78   106   105    2
    79     4     3    2
    80    79    77   ar
    81    76    75   ar
    82    12    11    2
    83    42    41    1
    84   109   107    1
    85   107   108    1
    86     3     9   am
    87     3     2    1
    88    10    11    1
    89    10    13    1
    90    10     9    1
    91    77    75   ar
    92    75    74    1
    93    41    40    1
    94    11    18   am
    95    14    13    1
    96    14    15    1
    97     7     6   ar
    98     5     2    1
    99     5     6    1
   100     1     2    1
   101     6     8   ar
   102    69    67    1
   103    74    71    1
   104    18    19    1
   105    19    20    1
   106    40    39    1
   107    17    15   ar
   108    15    16   ar
   109    67    68    1
   110    67    64    1
   111    39    36    1
   112    21    20    2
   113    20    22   am
   114    66    65    2
   115    71    70    1
   116    71    72    1
   117    65    64    1
   118    64    63    1
   119    72    73    2
   120    22    23    1
   121    36    35    1
   122    36    37    1
   123    63    55   am
   124    52    51    2
   125    35    33   am
   126    37    38    2
   127    23    24    1
   128    23    26    1
   129    55    56    2
   130    55    54    1
   131    27    26    1
   132    27    28    1
   133    30    29    1
   134    24    31   am
   135    24    25    2
   136    51    50    1
   137    51    53   am
   138    31    32    1
   139    33    32    1
   140    33    34    2
   141    54    53    1
   142    54    57    1
   143    29    28    1
   144    50    49    1
   145    47    46    2
   146    46    49   am
   147    46    45    1
   148    57    58    1
   149    45    48    1
   150    45    44    1
   151    58    59   ar
   152    58    60   ar
   153    59    61   ar
   154    60    62   ar
   155    85    84    2
   156    61    62   ar
   157    84    83    1
   158    83    82    1
