@<TRIPOS>MOLECULE
tmp/1dj9A00.pdb
 183 169 0 0 0
SMALL
GASTEIGER

@<TRIPOS>ATOM
      1  N         21.4340    4.0350   34.6850 N.3    20  ARG20      -0.1245
      2  CA        20.8970    2.7280   35.0170 C.3    20  ARG20       0.1563
      3  C         20.9750    1.7650   33.8330 C.2    20  ARG20       0.2260
      4  O         20.5860    2.1380   32.7190 O.2    20  ARG20      -0.2867
      5  CB        19.4330    2.8500   35.4460 C.3    20  ARG20       0.0307
      6  CG        19.2640    3.1740   36.9160 C.3    20  ARG20       0.0489
      7  CD        19.1040    4.6640   37.1780 C.3    20  ARG20       0.2205
      8  NE        18.6230    4.8740   38.5420 N.pl3  20  ARG20      -0.0865
      9  CZ        18.9530    5.8770   39.3370 C.cat  20  ARG20       0.5346
     10  NH1       19.7900    6.8060   38.8990 N.pl3  20  ARG20       0.1354
     11  NH2       18.4340    5.9360   40.5600 N.pl3  20  ARG20       0.1354
     12  N         11.2310   -8.1820   46.1040 N.3    46  ASN46      -0.1240
     13  CA        10.1420   -7.6760   46.9230 C.3    46  ASN46       0.1653
     14  C          9.1850   -8.8080   47.2990 C.2    46  ASN46       0.2266
     15  O          8.0720   -8.5070   47.7100 O.2    46  ASN46      -0.2867
     16  CB         9.3260   -6.6050   46.1910 C.3    46  ASN46       0.1155
     17  CG        10.0990   -5.3310   45.9340 C.2    46  ASN46       0.2627
     18  OD1       11.0130   -4.9630   46.6720 O.2    46  ASN46      -0.2716
     19  ND2        9.7180   -4.6420   44.8590 N.am   46  ASN46      -0.0877
     20  N         -1.4720   -2.6430   37.3110 N.3   106  SER106     -0.1202
     21  CA        -0.3090   -2.3180   38.1110 C.3   106  SER106      0.2020
     22  C         -0.5590   -1.2280   39.1690 C.2   106  SER106      0.2619
     23  O         -1.4960   -0.4380   39.1070 O.2   106  SER106     -0.2717
     24  CB         0.8720   -1.8870   37.2350 C.3   106  SER106      0.2103
     25  OG         0.8090   -0.5170   36.8830 O.3   106  SER106     -0.2182
     26  N          0.3130   -1.1970   40.1760 N.am  107  GLY107     -0.1942
     27  CA         0.2110   -0.2520   41.2790 C.3   107  GLY107      0.2014
     28  C          0.3610    1.1670   40.7680 C.2   107  GLY107      0.2638
     29  O         -0.3660    2.0890   41.1250 O.2   107  GLY107     -0.2714
     30  N          1.3330    1.2980   39.8790 N.am  108  PHE108     -0.1973
     31  CA         1.6480    2.5600   39.2210 C.3   108  PHE108      0.1639
     32  C          0.4310    3.0800   38.4810 C.2   108  PHE108      0.2290
     33  O          0.0830    4.2630   38.5530 O.2   108  PHE108     -0.2864
     34  CB         2.8390    2.3280   38.2950 C.3   108  PHE108      0.0560
     35  CG         3.5390    3.5800   37.8380 C.ar  108  PHE108     -0.0200
     36  CD1        4.7600    3.9360   38.3790 C.ar  108  PHE108     -0.0042
     37  CD2        2.9820    4.3960   36.8680 C.ar  108  PHE108     -0.0042
     38  CE1        5.3950    5.0730   37.9450 C.ar  108  PHE108     -0.0003
     39  CE2        3.6100    5.5480   36.4320 C.ar  108  PHE108     -0.0003
     40  CZ         4.8270    5.8920   36.9950 C.ar  108  PHE108     -0.0000
     41  N         -2.4150    4.1500   41.1190 N.3   111  ASN111     -0.1240
     42  CA        -2.1700    5.4040   41.8120 C.3   111  ASN111      0.1653
     43  C         -2.4020    6.5820   40.8670 C.2   111  ASN111      0.2266
     44  O         -2.9730    7.6070   41.2280 O.2   111  ASN111     -0.2867
     45  CB        -0.7420    5.5170   42.3540 C.3   111  ASN111      0.1155
     46  CG        -0.4540    4.7000   43.5960 C.2   111  ASN111      0.2627
     47  OD1       -1.3640    4.3830   44.3560 O.2   111  ASN111     -0.2716
     48  ND2        0.8180    4.3660   43.8070 N.am  111  ASN111     -0.0877
     49  N          5.9380    7.4860   46.9550 N.3   132  HIS132     -0.1241
     50  CA         6.3650    6.7950   45.7450 C.3   132  HIS132      0.1621
     51  C          6.2700    7.6670   44.4960 C.2   132  HIS132      0.2264
     52  O          5.3030    8.4210   44.3570 O.2   132  HIS132     -0.2867
     53  CB         5.4880    5.5670   45.5100 C.3   132  HIS132      0.0745
     54  CG         5.8030    4.7380   44.3060 C.ar  132  HIS132      0.0817
     55  ND1        5.0700    4.7380   43.1400 N.ar  132  HIS132     -0.2268
     56  CD2        6.8020    3.8400   44.1120 C.ar  132  HIS132      0.1154
     57  CE1        5.6050    3.8900   42.2830 C.ar  132  HIS132      0.1986
     58  NE2        6.6680    3.3240   42.8520 N.ar  132  HIS132     -0.2212
     59  N          2.1630    6.6480   52.5320 N.3   174  GLU174     -0.1245
     60  CA         2.3320    5.1970   52.3490 C.3   174  GLU174      0.1567
     61  C          2.2070    4.4190   53.6530 C.2   174  GLU174      0.2260
     62  O          2.5990    4.8910   54.7280 O.2   174  GLU174     -0.2867
     63  CB         3.6980    4.9940   51.7090 C.3   174  GLU174      0.0388
     64  CG         3.9530    5.6030   50.3510 C.3   174  GLU174      0.1160
     65  CD         5.2420    5.1300   49.7010 C.2   174  GLU174      0.3649
     66  OE1        5.8400    4.1460   50.1800 O.co2 174  GLU174     -0.2457
     67  OE2        5.6830    5.7200   48.6950 O.co2 174  GLU174     -0.2457
     68  N          3.8020    1.3670   54.4290 N.3   176  VAL176     -0.1245
     69  CA         5.2120    1.0420   54.5970 C.3   176  VAL176      0.1561
     70  C          6.0340    1.7550   53.5280 C.2   176  VAL176      0.2260
     71  O          5.9480    1.4640   52.3350 O.2   176  VAL176     -0.2867
     72  CB         5.4990   -0.4750   54.5020 C.3   176  VAL176      0.0252
     73  CG1        7.0010   -0.7120   54.6330 C.3   176  VAL176      0.0019
     74  CG2        4.7400   -1.2590   55.5580 C.3   176  VAL176      0.0019
     75  N          8.4800    2.8470   50.7470 N.3   178  SER178     -0.1202
     76  CA         9.2560    2.1830   49.7260 C.3   178  SER178      0.2020
     77  C         10.6830    1.8650   50.1750 C.2   178  SER178      0.2618
     78  O         11.0550    0.7140   50.3280 O.2   178  SER178     -0.2717
     79  CB         9.4140    3.0560   48.4760 C.3   178  SER178      0.2103
     80  OG         9.0820    2.4140   47.2780 O.3   178  SER178     -0.2182
     81  N         11.4350    2.9430   50.3270 N.am  179  MET179     -0.1979
     82  CA        12.8880    2.8900   50.4220 C.3   179  MET179      0.1605
     83  C         13.3900    2.8660   51.8510 C.2   179  MET179      0.2287
     84  O         14.4580    2.3060   52.1250 O.2   179  MET179     -0.2864
     85  CB        13.4620    4.0830   49.6440 C.3   179  MET179      0.0413
     86  CG        13.2190    4.0400   48.1390 C.3   179  MET179      0.0598
     87  SD        13.6890    2.4740   47.3850 S.3   179  MET179     -0.1393
     88  CE        13.0580    2.6370   45.7260 C.3   179  MET179      0.0692
     89  N         -1.1730    4.3240   50.1850 N.3   203  ASP203     -0.1239
     90  CA        -0.5840    3.2950   49.3220 C.3   203  ASP203      0.1674
     91  C          0.1450    2.2650   50.1890 C.2   203  ASP203      0.2266
     92  O          1.2070    2.5720   50.7400 O.2   203  ASP203     -0.2867
     93  CB         0.3560    3.9290   48.3080 C.3   203  ASP203      0.1410
     94  CG         1.1720    2.9990   47.4420 C.2   203  ASP203      0.3668
     95  OD1        1.2980    1.7880   47.6940 O.co2 203  ASP203     -0.2456
     96  OD2        1.7670    3.4870   46.4420 O.co2 203  ASP203     -0.2456
     97  N          1.5170   -0.7130   49.3700 N.3   205  ALA205     -0.1231
     98  CA         2.2080   -1.6950   48.5410 C.3   205  ALA205      0.1694
     99  C          3.0510   -2.6420   49.3950 C.2   205  ALA205      0.2592
    100  O          3.0690   -3.8400   49.1720 O.2   205  ALA205     -0.2718
    101  CB         3.0960   -1.0100   47.5110 C.3   205  ALA205      0.0304
    102  N          3.7620   -2.0820   50.3710 N.am  206  HIS206     -0.1976
    103  CA         4.7990   -2.8070   51.0800 C.3   206  HIS206      0.1656
    104  C          4.2860   -3.3550   52.3960 C.2   206  HIS206      0.2291
    105  O          4.9960   -4.0540   53.1110 O.2   206  HIS206     -0.2864
    106  CB         6.0080   -1.8810   51.2560 C.3   206  HIS206      0.0771
    107  CG         6.5860   -1.5120   49.9220 C.ar  206  HIS206      0.0820
    108  ND1        7.3300   -2.4030   49.1730 N.ar  206  HIS206     -0.2267
    109  CD2        6.5210   -0.3850   49.1910 C.ar  206  HIS206      0.1154
    110  CE1        7.7060   -1.8300   48.0420 C.ar  206  HIS206      0.1986
    111  NE2        7.2300   -0.6000   48.0270 N.ar  206  HIS206     -0.2212
    112  N         -4.7940    1.9530   48.3600 N.3   230  VAL230     -0.1245
    113  CA        -4.2790    1.2530   47.1820 C.3   230  VAL230      0.1561
    114  C         -3.4710    0.0650   47.7030 C.2   230  VAL230      0.2260
    115  O         -2.6500    0.2550   48.6010 O.2   230  VAL230     -0.2867
    116  CB        -3.4320    2.1160   46.2460 C.3   230  VAL230      0.0252
    117  CG1       -2.9900    1.3260   45.0140 C.3   230  VAL230      0.0019
    118  CG2       -4.2110    3.3410   45.7950 C.3   230  VAL230      0.0019
    119  N         -1.2060   -3.2310   46.0990 N.3   232  THR232     -0.1218
    120  CA        -0.4580   -3.6790   44.9290 C.3   232  THR232      0.1862
    121  C          0.1080   -5.0720   45.1500 C.2   232  THR232      0.2287
    122  O          0.4490   -5.4940   46.2620 O.2   232  THR232     -0.2866
    123  CB         0.6650   -2.6790   44.6060 C.3   232  THR232      0.1770
    124  OG1        0.9030   -2.6600   43.1930 O.3   232  THR232     -0.2211
    125  CG2        1.9640   -3.1210   45.2460 C.3   232  THR232      0.0375
    126  N          2.6540   -6.8320   43.2790 N.3   234  GLY234     -0.1210
    127  CA         3.9430   -7.3110   42.7620 C.3   234  GLY234      0.1956
    128  C          4.9460   -7.5310   43.8740 C.2   234  GLY234      0.2611
    129  O          6.0890   -7.9040   43.5980 O.2   234  GLY234     -0.2717
    130  N          4.5680   -7.3070   45.1340 N.am  235  LYS235     -0.1979
    131  CA         5.4790   -7.5370   46.2590 C.3   235  LYS235      0.1596
    132  C          5.0720   -8.7520   47.0760 C.2   235  LYS235      0.2287
    133  O          5.1830   -9.8900   46.5820 O.2   235  LYS235     -0.2864
    134  CB         5.5650   -6.2630   47.1230 C.3   235  LYS235      0.0298
    135  CG         6.1760   -5.1040   46.3510 C.3   235  LYS235      0.0038
    136  CD         5.2560   -3.9060   46.2440 C.3   235  LYS235      0.0206
    137  CE         5.8960   -2.7680   45.4500 C.3   235  LYS235      0.1093
    138  NZ         5.7870   -2.9870   43.9760 N.3   235  LYS235     -0.1314
    139  N         -0.0230   -6.5180   39.4640 N.3   241  GLY241     -0.1225
    140  CA        -1.3090   -5.8490   39.4910 C.3   241  GLY241      0.1811
    141  C         -1.5360   -5.0810   40.7820 C.2   241  GLY241      0.2280
    142  O         -0.6560   -4.9480   41.6280 O.2   241  GLY241     -0.2866
    143  N         22.4180   -1.1160   45.0220 N.3   346  GLY346     -0.1210
    144  CA        22.6390    0.2930   45.2370 C.3   346  GLY346      0.1956
    145  C         21.5300    1.1690   44.6830 C.2   346  GLY346      0.2612
    146  O         21.3580    1.3170   43.4690 O.2   346  GLY346     -0.2717
    147  N         20.7520    1.7650   45.5880 N.am  347  ILE347     -0.1965
    148  CA        19.6540    2.6370   45.1870 C.3   347  ILE347      0.1727
    149  C         20.0330    4.1040   45.3990 C.2   347  ILE347      0.2616
    150  O         20.2960    4.5220   46.5230 O.2   347  ILE347     -0.2715
    151  CB        18.3450    2.3540   45.9420 C.3   347  ILE347      0.0290
    152  CG1       17.2820    3.4400   45.6850 C.3   347  ILE347      0.0022
    153  CG2       18.5900    2.1400   47.4190 C.3   347  ILE347      0.0023
    154  CD1       17.0240    3.5450   44.1950 C.3   347  ILE347      0.0001
    155  N         20.0350    4.8040   44.2770 N.am  348  ARG348     -0.1977
    156  CA        20.4810    6.1710   44.1310 C.3   348  ARG348      0.1597
    157  C         19.3860    7.1170   43.6660 C.2   348  ARG348      0.2287
    158  O         18.3790    6.6800   43.1070 O.2   348  ARG348     -0.2864
    159  CB        21.6180    6.1910   43.0940 C.3   348  ARG348      0.0334
    160  CG        22.2160    4.8010   42.8910 C.3   348  ARG348      0.0492
    161  CD        23.1080    4.7810   41.6620 C.3   348  ARG348      0.2205
    162  NE        22.6140    3.8510   40.6500 N.pl3 348  ARG348     -0.0865
    163  CZ        23.1420    3.7510   39.4330 C.cat 348  ARG348      0.5346
    164  NH1       24.1680    4.5150   39.0700 N.pl3 348  ARG348      0.1354
    165  NH2       22.6340    2.8780   38.5690 N.pl3 348  ARG348      0.1354
    166  N         15.7230    8.3260   42.7360 N.3   351  THR351     -0.1218
    167  CA        14.7810    7.4100   43.3970 C.3   351  THR351      0.1862
    168  C         14.7940    7.6400   44.9030 C.2   351  THR351      0.2287
    169  O         13.7370    7.6010   45.5390 O.2   351  THR351     -0.2866
    170  CB        15.1030    5.9540   43.0380 C.3   351  THR351      0.1770
    171  OG1       14.9730    5.7680   41.6140 O.3   351  THR351     -0.2211
    172  CG2       14.1150    5.0120   43.7020 C.3   351  THR351      0.0375
    173  N         19.5700   -1.2720   49.5470 N.3   360  ARG360     -0.1245
    174  CA        18.2080   -1.5330   50.0240 C.3   360  ARG360      0.1563
    175  C         18.0260   -3.0370   50.1800 C.2   360  ARG360      0.2260
    176  O         17.5740   -3.7240   49.2640 O.2   360  ARG360     -0.2867
    177  CB        17.1450   -0.9420   49.1020 C.3   360  ARG360      0.0307
    178  CG        15.7080   -1.1950   49.5580 C.3   360  ARG360      0.0489
    179  CD        14.7930   -1.3500   48.3560 C.3   360  ARG360      0.2205
    180  NE        13.3650   -1.4020   48.6720 N.pl3 360  ARG360     -0.0865
    181  CZ        12.6000   -2.3680   48.1670 C.cat 360  ARG360      0.5346
    182  NH1       13.1710   -3.2730   47.3810 N.pl3 360  ARG360      0.1354
    183  NH2       11.3040   -2.4640   48.4170 N.pl3 360  ARG360      0.1354
@<TRIPOS>BOND
     1     4     3    2
     2     3     2    1
     3     1     2    1
     4     2     5    1
     5     5     6    1
     6    39    37   ar
     7    39    40   ar
     8    37    35   ar
     9    25    24    1
    10     6     7    1
    11    40    38   ar
    12     7     8    1
    13    24    21    1
    14    20    21    1
    15    35    34    1
    16    35    36   ar
    17    38    36   ar
    18    21    22    1
    19    34    31    1
    20    32    33    2
    21    32    31    1
    22     8     9    2
    23   165   163    1
    24    10     9    1
    25   164   163    1
    26    23    22    2
    27    22    26   am
    28    31    30    1
    29     9    11    1
    30   163   162    2
    31   139   140    1
    32   140   141    1
    33    30    28   am
    34    26    27    1
    35   162   161    1
    36    28    29    2
    37    28    27    1
    38   141   142    2
    39    43    44    2
    40    43    42    1
    41    41    42    1
    42   171   170    1
    43   161   160    1
    44    42    45    1
    45    57    58   ar
    46    57    55   ar
    47    45    46    1
    48   166   167    1
    49   127   126    1
    50   127   128    1
    51    58    56   ar
    52   160   159    1
    53   170   167    1
    54   170   172    1
    55   159   156    1
    56   158   157    2
    57    55    54   ar
    58   124   123    1
    59   167   168    1
    60   146   145    2
    61    46    48   am
    62    46    47    2
    63   129   128    2
    64   157   156    1
    65   128   130   am
    66   138   137    1
    67    56    54   ar
    68   156   155    1
    69   154   152    1
    70   155   149   am
    71    54    53    1
    72    52    51    2
    73    51    50    1
    74   123   120    1
    75   123   125    1
    76   145   144    1
    77   145   147   am
    78    19    17   am
    79   168   169    2
    80   120   121    1
    81   120   119    1
    82   117   116    1
    83   143   144    1
    84   130   131    1
    85   121   122    2
    86   148   149    1
    87   148   147    1
    88   148   151    1
    89   149   150    2
    90   137   136    1
    91    53    50    1
    92   152   151    1
    93    88    87    1
    94    50    49    1
    95   118   116    1
    96    17    16    1
    97    17    18    2
    98   151   153    1
    99    12    13    1
   100    16    13    1
   101   136   135    1
   102   116   113    1
   103   131   132    1
   104   131   134    1
   105   135   134    1
   106    96    94   ar
   107   133   132    2
   108    13    14    1
   109   113   114    1
   110   113   112    1
   111    80    79    1
   112    14    15    2
   113   182   181    1
   114    87    86    1
   115    94    95   ar
   116    94    93    1
   117   101    98    1
   118   114   115    2
   119   111   110   ar
   120   111   109   ar
   121   110   108   ar
   122    86    85    1
   123   181   183    1
   124   181   180    2
   125    93    90    1
   126   179   180    1
   127   179   178    1
   128    79    76    1
   129    98    97    1
   130    98    99    1
   131    67    65   ar
   132   177   178    1
   133   177   174    1
   134   100    99    2
   135   108   107   ar
   136   109   107   ar
   137   176   175    2
   138    90    89    1
   139    90    91    1
   140    99   102   am
   141   173   174    1
   142    85    82    1
   143    65    66   ar
   144    65    64    1
   145    76    77    1
   146    76    75    1
   147   107   106    1
   148   174   175    1
   149    77    81   am
   150    77    78    2
   151    91    92    2
   152    81    82    1
   153    64    63    1
   154   102   103    1
   155    82    83    1
   156   103   106    1
   157   103   104    1
   158    63    60    1
   159    83    84    2
   160    71    70    2
   161    60    59    1
   162    60    61    1
   163   104   105    2
   164    70    69    1
   165    61    62    2
   166    68    69    1
   167    72    69    1
   168    72    73    1
   169    72    74    1
