@<TRIPOS>MOLECULE
tmp/1djeA00.pdb
 127 117 0 0 0
SMALL
GASTEIGER

@<TRIPOS>ATOM
      1  N         -1.3250   -2.5930   37.0880 N.3   106  SER106     -0.1202
      2  CA        -0.1250   -2.3060   37.8600 C.3   106  SER106      0.2020
      3  C         -0.4660   -1.2600   38.9230 C.2   106  SER106      0.2619
      4  O         -1.4730   -0.5470   38.8340 O.2   106  SER106     -0.2717
      5  CB         1.0730   -1.8220   37.0350 C.3   106  SER106      0.2103
      6  OG         0.8270   -0.4690   36.6180 O.3   106  SER106     -0.2182
      7  N          0.3810   -1.1920   39.9510 N.am  107  GLY107     -0.1942
      8  CA         0.1590   -0.2500   41.0590 C.3   107  GLY107      0.2014
      9  C          0.4460    1.1670   40.5420 C.2   107  GLY107      0.2638
     10  O         -0.2380    2.1350   40.8600 O.2   107  GLY107     -0.2714
     11  N          1.4710    1.2520   39.7140 N.am  108  PHE108     -0.1973
     12  CA         1.8090    2.5080   39.0450 C.3   108  PHE108      0.1639
     13  C          0.6210    3.0200   38.2460 C.2   108  PHE108      0.2290
     14  O          0.2620    4.1970   38.3730 O.2   108  PHE108     -0.2864
     15  CB         3.0170    2.2940   38.1250 C.3   108  PHE108      0.0560
     16  CG         3.7640    3.5470   37.6910 C.ar  108  PHE108     -0.0200
     17  CD1        5.0360    3.7890   38.2030 C.ar  108  PHE108     -0.0042
     18  CD2        3.2040    4.4410   36.7940 C.ar  108  PHE108     -0.0042
     19  CE1        5.7330    4.9230   37.8250 C.ar  108  PHE108     -0.0003
     20  CE2        3.8850    5.5790   36.4090 C.ar  108  PHE108     -0.0003
     21  CZ         5.1390    5.7960   36.9320 C.ar  108  PHE108     -0.0000
     22  N         -2.3160    4.1940   40.8920 N.3   111  ASN111     -0.1240
     23  CA        -1.9890    5.4510   41.5700 C.3   111  ASN111      0.1653
     24  C         -2.2340    6.6180   40.6220 C.2   111  ASN111      0.2266
     25  O         -2.8650    7.6120   40.9630 O.2   111  ASN111     -0.2867
     26  CB        -0.5110    5.4660   42.0220 C.3   111  ASN111      0.1155
     27  CG        -0.3360    4.7480   43.3510 C.2   111  ASN111      0.2627
     28  OD1       -1.3080    4.6230   44.0940 O.2   111  ASN111     -0.2716
     29  ND2        0.8970    4.3340   43.6550 N.am  111  ASN111     -0.0877
     30  N          6.0670    7.4820   46.6280 N.3   132  HIS132     -0.1241
     31  CA         6.4920    6.8080   45.3920 C.3   132  HIS132      0.1621
     32  C          6.4520    7.7220   44.1740 C.2   132  HIS132      0.2264
     33  O          5.5260    8.5290   44.1000 O.2   132  HIS132     -0.2867
     34  CB         5.5900    5.6070   45.1100 C.3   132  HIS132      0.0745
     35  CG         6.1550    4.6550   44.1080 C.ar  132  HIS132      0.0817
     36  ND1        5.6740    4.5260   42.8170 N.ar  132  HIS132     -0.2268
     37  CD2        7.1670    3.7610   44.2070 C.ar  132  HIS132      0.1154
     38  CE1        6.3630    3.6020   42.1590 C.ar  132  HIS132      0.1986
     39  NE2        7.2770    3.1280   42.9900 N.ar  132  HIS132     -0.2212
     40  N          5.4600    7.2910   41.1740 N.3   134  SER134     -0.1217
     41  CA         4.1910    7.2480   40.4540 C.3   134  SER134      0.1889
     42  C          3.2000    8.2610   41.0280 C.2   134  SER134      0.2288
     43  O          2.4940    8.9560   40.2860 O.2   134  SER134     -0.2866
     44  CB         3.6100    5.8320   40.5360 C.3   134  SER134      0.2089
     45  OG         3.4010    5.4810   41.8930 O.3   134  SER134     -0.2183
     46  N          2.4270    6.5440   52.2580 N.3   174  GLU174     -0.1245
     47  CA         2.6280    5.0960   52.0990 C.3   174  GLU174      0.1567
     48  C          2.4320    4.3560   53.3940 C.2   174  GLU174      0.2260
     49  O          2.6770    4.8380   54.5070 O.2   174  GLU174     -0.2867
     50  CB         4.0430    4.8710   51.5500 C.3   174  GLU174      0.0388
     51  CG         4.1440    5.4040   50.1250 C.3   174  GLU174      0.1160
     52  CD         5.4910    5.1550   49.4900 C.2   174  GLU174      0.3649
     53  OE1        6.2410    4.2710   49.9510 O.co2 174  GLU174     -0.2457
     54  OE2        5.8030    5.8530   48.5020 O.co2 174  GLU174     -0.2457
     55  N          4.0400    1.6040   54.3270 N.3   176  VAL176     -0.1245
     56  CA         5.4290    1.2630   54.6180 C.3   176  VAL176      0.1561
     57  C          6.2720    1.8700   53.5150 C.2   176  VAL176      0.2260
     58  O          6.0870    1.5360   52.3380 O.2   176  VAL176     -0.2867
     59  CB         5.6050   -0.2650   54.6930 C.3   176  VAL176      0.0252
     60  CG1        7.0750   -0.6640   54.7820 C.3   176  VAL176      0.0019
     61  CG2        4.8250   -0.7560   55.9050 C.3   176  VAL176      0.0019
     62  N          9.0470    2.9520   50.7860 N.3   178  SER178     -0.1217
     63  CA         9.8770    2.1900   49.8910 C.3   178  SER178      0.1889
     64  C         11.3460    2.1920   50.2410 C.2   178  SER178      0.2288
     65  O         12.0410    1.1920   50.0910 O.2   178  SER178     -0.2866
     66  CB         9.7640    2.7780   48.4550 C.3   178  SER178      0.2089
     67  OG         8.5660    2.2700   47.9180 O.3   178  SER178     -0.2183
     68  N         -0.8930    4.3020   49.9530 N.3   203  ASP203     -0.1239
     69  CA        -0.3170    3.2690   49.1050 C.3   203  ASP203      0.1674
     70  C          0.3630    2.2280   50.0010 C.2   203  ASP203      0.2266
     71  O          1.3960    2.5780   50.5810 O.2   203  ASP203     -0.2867
     72  CB         0.6230    3.9440   48.1140 C.3   203  ASP203      0.1410
     73  CG         1.4880    3.0370   47.2730 C.2   203  ASP203      0.3668
     74  OD1        1.6690    1.8340   47.5730 O.co2 203  ASP203     -0.2456
     75  OD2        2.0650    3.5040   46.2600 O.co2 203  ASP203     -0.2456
     76  N          1.8310   -0.8110   49.2160 N.3   205  ALA205     -0.1231
     77  CA         2.5720   -1.8010   48.4500 C.3   205  ALA205      0.1694
     78  C          3.4850   -2.7040   49.2880 C.2   205  ALA205      0.2592
     79  O          3.6110   -3.8790   48.9340 O.2   205  ALA205     -0.2718
     80  CB         3.4910   -1.1450   47.4030 C.3   205  ALA205      0.0304
     81  N          4.0650   -2.1540   50.3430 N.am  206  HIS206     -0.1976
     82  CA         5.1290   -2.8590   51.0660 C.3   206  HIS206      0.1656
     83  C          4.5900   -3.4940   52.3400 C.2   206  HIS206      0.2291
     84  O          5.2570   -4.3390   52.9410 O.2   206  HIS206     -0.2864
     85  CB         6.3260   -1.9390   51.3810 C.3   206  HIS206      0.0771
     86  CG         6.9520   -1.5110   50.0720 C.ar  206  HIS206      0.0820
     87  ND1        7.6260   -2.3710   49.2610 N.ar  206  HIS206     -0.2267
     88  CD2        6.9910   -0.3170   49.4370 C.ar  206  HIS206      0.1154
     89  CE1        8.0710   -1.7550   48.1700 C.ar  206  HIS206      0.1986
     90  NE2        7.6800   -0.5080   48.2720 N.ar  206  HIS206     -0.2212
     91  N         -4.6460    1.7970   48.1400 N.3   230  VAL230     -0.1245
     92  CA        -4.1140    1.1780   46.9220 C.3   230  VAL230      0.1561
     93  C         -3.2320    0.0000   47.3370 C.2   230  VAL230      0.2260
     94  O         -2.2900    0.2110   48.1220 O.2   230  VAL230     -0.2867
     95  CB        -3.2830    2.1590   46.0900 C.3   230  VAL230      0.0252
     96  CG1       -2.6720    1.4900   44.8590 C.3   230  VAL230      0.0019
     97  CG2       -4.1600    3.3380   45.6310 C.3   230  VAL230      0.0019
     98  N         -0.7820   -3.2090   45.8630 N.3   232  THR232     -0.1218
     99  CA        -0.2030   -3.7460   44.6210 C.3   232  THR232      0.1862
    100  C          0.2360   -5.1810   44.8690 C.2   232  THR232      0.2287
    101  O          0.5810   -5.5550   45.9990 O.2   232  THR232     -0.2866
    102  CB         0.9350   -2.8350   44.1670 C.3   232  THR232      0.1770
    103  OG1        1.2840   -3.1710   42.8170 O.3   232  THR232     -0.2211
    104  CG2        2.1770   -3.0620   45.0190 C.3   232  THR232      0.0375
    105  N          2.6730   -6.9470   43.0430 N.3   234  GLY234     -0.1210
    106  CA         3.9690   -7.3470   42.5360 C.3   234  GLY234      0.1956
    107  C          5.0060   -7.5590   43.6240 C.2   234  GLY234      0.2611
    108  O          6.1740   -7.8930   43.3360 O.2   234  GLY234     -0.2717
    109  N          4.6020   -7.3710   44.8800 N.am  235  LYS235     -0.1979
    110  CA         5.6090   -7.5140   45.9640 C.3   235  LYS235      0.1596
    111  C          5.3320   -8.7540   46.7870 C.2   235  LYS235      0.2287
    112  O          5.5290   -9.8830   46.2980 O.2   235  LYS235     -0.2864
    113  CB         5.6410   -6.2460   46.8310 C.3   235  LYS235      0.0298
    114  CG         6.5430   -5.2050   46.1450 C.3   235  LYS235      0.0038
    115  CD         5.8090   -3.9620   45.7060 C.3   235  LYS235      0.0206
    116  CE         6.6760   -3.1590   44.7150 C.3   235  LYS235      0.1093
    117  NZ         6.1770   -1.7950   44.6430 N.3   235  LYS235     -0.1314
    118  N          1.6360   -9.6740   40.2240 N.3   240  SER240     -0.1202
    119  CA         1.6860   -8.4370   39.4520 C.3   240  SER240      0.2020
    120  C          0.2840   -7.8670   39.4490 C.2   240  SER240      0.2619
    121  O         -0.6480   -8.6770   39.6700 O.2   240  SER240     -0.2717
    122  CB         2.1510   -8.8890   38.0740 C.3   240  SER240      0.2103
    123  OG         2.2100   -7.9170   37.0950 O.3   240  SER240     -0.2182
    124  N          0.0650   -6.5790   39.2240 N.am  241  GLY241     -0.1956
    125  CA        -1.3130   -6.0840   39.2700 C.3   241  GLY241      0.1869
    126  C         -1.5510   -5.2040   40.5010 C.2   241  GLY241      0.2309
    127  O         -0.6130   -5.0640   41.3170 O.2   241  GLY241     -0.2863
@<TRIPOS>BOND
     1    20    18   ar
     2    20    21   ar
     3     6     5    1
     4    18    16   ar
     5    21    19   ar
     6     5     2    1
     7     1     2    1
     8   123   122    1
     9    16    15    1
    10    16    17   ar
    11    19    17   ar
    12     2     3    1
    13   122   119    1
    14    15    12    1
    15    13    14    2
    16    13    12    1
    17     4     3    2
    18     3     7   am
    19    12    11    1
    20   124   125    1
    21   124   120   am
    22   125   126    1
    23   120   119    1
    24   120   121    2
    25   119   118    1
    26    11     9   am
    27     7     8    1
    28    43    42    2
    29    41    44    1
    30    41    42    1
    31    41    40    1
    32   126   127    2
    33    44    45    1
    34     9    10    2
    35     9     8    1
    36    24    25    2
    37    24    23    1
    38    22    23    1
    39    23    26    1
    40    26    27    1
    41    38    36   ar
    42    38    39   ar
    43   106   105    1
    44   106   107    1
    45    36    35   ar
    46   103   102    1
    47    39    37   ar
    48   108   107    2
    49    27    29   am
    50    27    28    2
    51   107   109   am
    52    33    32    2
    53    35    37   ar
    54    35    34    1
    55   102    99    1
    56   102   104    1
    57    32    31    1
    58    99   100    1
    59    99    98    1
    60   117   116    1
    61   116   115    1
    62    96    95    1
    63   100   101    2
    64   109   110    1
    65    34    31    1
    66    31    30    1
    67    97    95    1
    68   115   114    1
    69   110   111    1
    70   110   113    1
    71    95    92    1
    72   114   113    1
    73    75    73   ar
    74   112   111    2
    75    92    93    1
    76    92    91    1
    77    73    74   ar
    78    73    72    1
    79    93    94    2
    80    80    77    1
    81    67    66    1
    82    72    69    1
    83    89    90   ar
    84    89    87   ar
    85    90    88   ar
    86    77    76    1
    87    77    78    1
    88    66    63    1
    89    54    52   ar
    90    79    78    2
    91    69    68    1
    92    69    70    1
    93    87    86   ar
    94    78    81   am
    95    88    86   ar
    96    52    53   ar
    97    52    51    1
    98    63    64    1
    99    63    62    1
   100    70    71    2
   101    86    85    1
   102    65    64    2
   103    51    50    1
   104    81    82    1
   105    82    85    1
   106    82    83    1
   107    50    47    1
   108    47    46    1
   109    47    48    1
   110    58    57    2
   111    83    84    2
   112    48    49    2
   113    57    56    1
   114    55    56    1
   115    56    59    1
   116    59    60    1
   117    59    61    1
