@<TRIPOS>MOLECULE
tmp/1djoA00.pdb
 90 84 0 0 0
SMALL
GASTEIGER

@<TRIPOS>ATOM
      1  N         44.4190  131.3840   86.1020 N.3    12  GLY12      -0.1210
      2  CA        43.6640  130.5860   87.0530 C.3    12  GLY12       0.1956
      3  C         42.5910  131.3300   87.8280 C.2    12  GLY12       0.2612
      4  O         42.3090  132.5030   87.5650 O.2    12  GLY12      -0.2717
      5  N         41.9790  130.6410   88.7880 N.am   13  THR13      -0.1952
      6  CA        40.9400  131.2530   89.6030 C.3    13  THR13       0.1897
      7  C         41.5720  132.1550   90.6450 C.2    13  THR13       0.2313
      8  O         40.9660  133.1280   91.0810 O.2    13  THR13      -0.2863
      9  CB        40.0930  130.2030   90.3290 C.3    13  THR13       0.1794
     10  OG1       39.4670  129.3620   89.3630 O.3    13  THR13      -0.2208
     11  CG2       39.0110  130.8720   91.1760 C.3    13  THR13       0.0378
     12  N         32.5360  132.1750   88.6100 N.3    27  TYR27      -0.1241
     13  CA        33.4140  133.3150   88.3940 C.3    27  TYR27       0.1605
     14  C         34.0560  133.2950   87.0120 C.2    27  TYR27       0.2264
     15  O         33.8020  132.4100   86.1970 O.2    27  TYR27      -0.2867
     16  CB        34.5290  133.3060   89.4270 C.3    27  TYR27       0.0534
     17  CG        35.3830  132.0800   89.2690 C.ar   27  TYR27      -0.0201
     18  CD1       35.0830  130.9030   89.9580 C.ar   27  TYR27      -0.0009
     19  CD2       36.4140  132.0540   88.3290 C.ar   27  TYR27      -0.0009
     20  CE1       35.7800  129.7350   89.7070 C.ar   27  TYR27       0.0417
     21  CE2       37.1100  130.8960   88.0680 C.ar   27  TYR27       0.0417
     22  CZ        36.7850  129.7450   88.7560 C.ar   27  TYR27       0.1957
     23  OH        37.4470  128.5990   88.4510 O.3    27  TYR27      -0.2866
     24  N         37.8590  133.4480   85.2960 N.3    29  ALA29      -0.1245
     25  CA        39.2760  133.2800   85.6070 C.3    29  ALA29       0.1562
     26  C         40.2380  134.1640   84.8210 C.2    29  ALA29       0.2260
     27  O         39.8660  134.7960   83.8360 O.2    29  ALA29      -0.2867
     28  CB        39.6730  131.8220   85.4230 C.3    29  ALA29       0.0290
     29  N         42.9360  130.2110   81.4130 N.3    59  ALA59      -0.1231
     30  CA        42.1760  129.3210   82.2790 C.3    59  ALA59       0.1694
     31  C         42.8730  128.0010   81.9700 C.2    59  ALA59       0.2593
     32  O         42.9980  127.6310   80.8000 O.2    59  ALA59      -0.2718
     33  CB        40.7240  129.2740   81.8440 C.3    59  ALA59       0.0304
     34  N         43.3330  127.2950   82.9980 N.am   60  SER60      -0.1938
     35  CA        44.0690  126.0510   82.7800 C.3    60  SER60       0.2055
     36  C         43.3460  124.9580   81.9920 C.2    60  SER60       0.2642
     37  O         43.9930  124.0590   81.4630 O.2    60  SER60      -0.2714
     38  CB        44.5660  125.4840   84.1140 C.3    60  SER60       0.2130
     39  OG        43.4970  125.0140   84.9010 O.3    60  SER60      -0.2179
     40  N         42.0190  125.0130   81.9140 N.am   61  GLU61      -0.1976
     41  CA        41.2970  123.9920   81.1520 C.3    61  GLU61       0.1602
     42  C         41.6220  124.1300   79.6620 C.2    61  GLU61       0.2287
     43  O         41.4760  123.1790   78.8890 O.2    61  GLU61      -0.2864
     44  CB        39.7830  124.1160   81.3450 C.3    61  GLU61       0.0415
     45  CG        39.1820  125.4130   80.8140 C.3    61  GLU61       0.1163
     46  CD        38.9960  126.4580   81.8980 C.2    61  GLU61       0.3649
     47  OE1       39.8750  126.5620   82.7830 O.co2  61  GLU61      -0.2457
     48  OE2       37.9760  127.1810   81.8570 O.co2  61  GLU61      -0.2457
     49  N         45.9190  127.6380   87.2730 N.3    92  GLY92      -0.1210
     50  CA        44.5340  127.2360   87.4820 C.3    92  GLY92       0.1956
     51  C         44.5220  125.8090   88.0030 C.2    92  GLY92       0.2613
     52  O         45.3310  124.9880   87.5650 O.2    92  GLY92      -0.2717
     53  N         43.6080  125.4950   88.9200 N.am   93  THR93      -0.1938
     54  CA        43.5620  124.1560   89.5080 C.3    93  THR93       0.2028
     55  C         43.0890  123.0180   88.6060 C.2    93  THR93       0.2642
     56  O         43.4250  121.8590   88.8460 O.2    93  THR93      -0.2714
     57  CB        42.6740  124.1140   90.7640 C.3    93  THR93       0.1808
     58  OG1       41.3030  124.2390   90.3730 O.3    93  THR93      -0.2208
     59  CG2       43.0360  125.2290   91.7260 C.3    93  THR93       0.0379
     60  N         42.3100  123.3360   87.5780 N.am   94  ASP94      -0.1971
     61  CA        41.7840  122.3060   86.6810 C.3    94  ASP94       0.1709
     62  C         42.8300  121.3640   86.0830 C.2    94  ASP94       0.2293
     63  O         42.6130  120.1560   86.0530 O.2    94  ASP94      -0.2864
     64  CB        40.9430  122.9510   85.5780 C.3    94  ASP94       0.1436
     65  CG        39.6170  123.4790   86.1000 C.2    94  ASP94       0.3671
     66  OD1       38.9150  124.1790   85.3480 O.co2  94  ASP94      -0.2456
     67  OD2       39.2710  123.1870   87.2650 O.co2  94  ASP94      -0.2456
     68  N         43.9140  128.4240   93.5960 N.3   118  SER118     -0.1202
     69  CA        42.8960  128.6670   94.6100 C.3   118  SER118      0.2020
     70  C         41.5510  128.1790   94.0940 C.2   118  SER118      0.2618
     71  O         41.2300  128.3440   92.9150 O.2   118  SER118     -0.2717
     72  CB        42.8160  130.1570   94.9630 C.3   118  SER118      0.2103
     73  OG        42.1070  130.8950   93.9850 O.3   118  SER118     -0.2182
     74  N         40.7690  127.5670   94.9720 N.am  119  MET119     -0.1979
     75  CA        39.4650  127.0580   94.5720 C.3   119  MET119      0.1605
     76  C         38.4510  128.1850   94.4810 C.2   119  MET119      0.2287
     77  O         37.4820  128.0940   93.7350 O.2   119  MET119     -0.2864
     78  CB        38.9760  125.9890   95.5590 C.3   119  MET119      0.0413
     79  CG        39.6670  124.6370   95.4080 C.3   119  MET119      0.0598
     80  SD        39.4380  123.8790   93.7710 S.3   119  MET119     -0.1393
     81  CE        37.8220  123.1000   93.9710 C.3   119  MET119      0.0692
     82  N         43.4150  116.8040   91.5850 N.3   166  LYS166     -0.1245
     83  CA        42.2070  117.5240   91.9850 C.3   166  LYS166      0.1561
     84  C         41.1360  116.4380   92.0600 C.2   166  LYS166      0.2260
     85  O         40.6210  115.9980   91.0380 O.2   166  LYS166     -0.2867
     86  CB        41.8290  118.5800   90.9470 C.3   166  LYS166      0.0271
     87  CG        40.6280  119.4140   91.3540 C.3   166  LYS166      0.0035
     88  CD        40.4640  120.6230   90.4570 C.3   166  LYS166      0.0206
     89  CE        39.3620  121.5400   90.9760 C.3   166  LYS166      0.1093
     90  NZ        39.2140  122.7600   90.1250 N.3   166  LYS166     -0.1314
@<TRIPOS>BOND
     1    43    42    2
     2    42    41    1
     3    32    31    2
     4    45    44    1
     5    45    46    1
     6    41    44    1
     7    41    40    1
     8    29    30    1
     9    37    36    2
    10    33    30    1
    11    48    46   ar
    12    46    47   ar
    13    40    36   am
    14    31    30    1
    15    31    34   am
    16    36    35    1
    17    35    34    1
    18    35    38    1
    19    27    26    2
    20    38    39    1
    21    26    25    1
    22    24    25    1
    23    66    65   ar
    24    28    25    1
    25    64    65    1
    26    64    61    1
    27    63    62    2
    28    62    61    1
    29    65    67   ar
    30     1     2    1
    31    15    14    2
    32    61    60    1
    33    14    13    1
    34     2     3    1
    35    49    50    1
    36    50    51    1
    37     4     3    2
    38    52    51    2
    39    60    55   am
    40     3     5   am
    41    51    53   am
    42    21    19   ar
    43    21    22   ar
    44    19    17   ar
    45    13    12    1
    46    13    16    1
    47    23    22    1
    48    55    56    2
    49    55    54    1
    50    22    20   ar
    51     5     6    1
    52    53    54    1
    53    17    16    1
    54    17    18   ar
    55    10     9    1
    56    54    57    1
    57     6     9    1
    58     6     7    1
    59    20    18   ar
    60    90    89    1
    61     9    11    1
    62    58    57    1
    63    88    89    1
    64    88    87    1
    65     7     8    2
    66    57    59    1
    67    86    87    1
    68    86    83    1
    69    85    84    2
    70    82    83    1
    71    83    84    1
    72    71    70    2
    73    68    69    1
    74    77    76    2
    75    80    81    1
    76    80    79    1
    77    73    72    1
    78    70    69    1
    79    70    74   am
    80    76    75    1
    81    75    74    1
    82    75    78    1
    83    69    72    1
    84    79    78    1
