@<TRIPOS>MOLECULE
tmp/1djpB00.pdb
 90 84 0 0 0
SMALL
GASTEIGER

@<TRIPOS>ATOM
      1  N         31.8700   87.6750   86.6870 N.3    12  GLY12      -0.1210
      2  CA        32.7900   88.4740   87.4830 C.3    12  GLY12       0.1956
      3  C         33.8700   87.7590   88.2760 C.2    12  GLY12       0.2612
      4  O         34.0290   86.5440   88.1750 O.2    12  GLY12      -0.2717
      5  N         34.5960   88.5280   89.0870 N.am   13  THR13      -0.1952
      6  CA        35.6880   88.0110   89.9190 C.3    13  THR13       0.1897
      7  C         35.1890   87.1200   91.0540 C.2    13  THR13       0.2313
      8  O         35.8910   86.1880   91.4760 O.2    13  THR13      -0.2863
      9  CB        36.5260   89.1510   90.5260 C.3    13  THR13       0.1794
     10  OG1       37.0800   89.9550   89.4790 O.3    13  THR13      -0.2208
     11  CG2       37.6530   88.5910   91.3730 C.3    13  THR13       0.0378
     12  N         43.7580   86.7320   87.6620 N.3    27  TYR27      -0.1241
     13  CA        42.8690   85.5820   87.5700 C.3    27  TYR27       0.1605
     14  C         41.9500   85.6360   86.3460 C.2    27  TYR27       0.2264
     15  O         41.9240   86.6190   85.6020 O.2    27  TYR27      -0.2867
     16  CB        42.0050   85.5290   88.8390 C.3    27  TYR27       0.0534
     17  CG        41.2630   86.8240   89.0590 C.ar   27  TYR27      -0.0201
     18  CD1       41.8000   87.8240   89.8570 C.ar   27  TYR27      -0.0009
     19  CD2       40.0720   87.0910   88.3800 C.ar   27  TYR27      -0.0009
     20  CE1       41.1820   89.0570   89.9720 C.ar   27  TYR27       0.0417
     21  CE2       39.4490   88.3210   88.4810 C.ar   27  TYR27       0.0417
     22  CZ        40.0090   89.2980   89.2810 C.ar   27  TYR27       0.1957
     23  OH        39.3880   90.5160   89.3980 O.3    27  TYR27      -0.2866
     24  N         38.0900   85.6770   85.2980 N.3    29  ALA29      -0.1245
     25  CA        36.7380   85.9620   85.7760 C.3    29  ALA29       0.1562
     26  C         35.7060   85.0520   85.1300 C.2    29  ALA29       0.2260
     27  O         36.0140   84.3330   84.1800 O.2    29  ALA29      -0.2867
     28  CB        36.3840   87.4160   85.5070 C.3    29  ALA29       0.0290
     29  N         32.6470   88.8290   81.9890 N.3    59  ALA59      -0.1231
     30  CA        33.5720   89.7210   82.6650 C.3    59  ALA59       0.1694
     31  C         32.8440   91.0490   82.4480 C.2    59  ALA59       0.2593
     32  O         32.5810   91.4290   81.3060 O.2    59  ALA59      -0.2718
     33  CB        34.9130   89.7180   81.9580 C.3    59  ALA59       0.0304
     34  N         32.5000   91.7350   83.5370 N.am   60  SER60      -0.1938
     35  CA        31.7260   92.9780   83.4820 C.3    60  SER60       0.2055
     36  C         32.1830   94.1310   82.5960 C.2    60  SER60       0.2642
     37  O         31.3480   94.9270   82.1800 O.2    60  SER60      -0.2714
     38  CB        31.4020   93.4840   84.8960 C.3    60  SER60       0.2130
     39  OG        32.3000   94.4920   85.3120 O.3    60  SER60      -0.2179
     40  N         33.4810   94.2400   82.3120 N.am   61  GLU61      -0.1976
     41  CA        33.9710   95.3220   81.4480 C.3    61  GLU61       0.1602
     42  C         33.4920   95.1430   79.9930 C.2    61  GLU61       0.2287
     43  O         33.5230   96.0920   79.2080 O.2    61  GLU61      -0.2864
     44  CB        35.5050   95.4170   81.4770 C.3    61  GLU61       0.0415
     45  CG        36.2490   94.2910   80.7740 C.3    61  GLU61       0.1163
     46  CD        36.5620   93.1160   81.6790 C.2    61  GLU61       0.3649
     47  OE1       36.0330   93.0580   82.8050 O.co2  61  GLU61      -0.2457
     48  OE2       37.3550   92.2450   81.2730 O.co2  61  GLU61      -0.2457
     49  N         30.4760   91.5100   88.2880 N.3    92  GLY92      -0.1210
     50  CA        31.8730   91.9050   88.2510 C.3    92  GLY92       0.1956
     51  C         31.9540   93.3500   88.6900 C.2    92  GLY92       0.2613
     52  O         31.1100   94.1670   88.3280 O.2    92  GLY92      -0.2717
     53  N         32.9900   93.6630   89.4580 N.am   93  THR93      -0.1938
     54  CA        33.2050   94.9930   90.0190 C.3    93  THR93       0.2028
     55  C         33.4420   96.1450   89.0560 C.2    93  THR93       0.2642
     56  O         33.1120   97.2840   89.3750 O.2    93  THR93      -0.2714
     57  CB        34.3570   94.9560   91.0550 C.3    93  THR93       0.1808
     58  OG1       35.5710   94.5280   90.4190 O.3    93  THR93      -0.2208
     59  CG2       34.0180   93.9750   92.1690 C.3    93  THR93       0.0379
     60  N         33.9920   95.8520   87.8770 N.am   94  ASP94      -0.1971
     61  CA        34.3040   96.8950   86.8910 C.3    94  ASP94       0.1709
     62  C         33.1550   97.8100   86.4910 C.2    94  ASP94       0.2293
     63  O         33.3140   99.0370   86.4420 O.2    94  ASP94      -0.2864
     64  CB        34.9630   96.2830   85.6470 C.3    94  ASP94       0.1436
     65  CG        36.4040   95.8880   85.8860 C.2    94  ASP94       0.3671
     66  OD1       37.1460   95.7640   84.9040 O.co2  94  ASP94      -0.2456
     67  OD2       36.8100   95.7050   87.0500 O.co2  94  ASP94      -0.2456
     68  N         33.3400   90.8700   94.2770 N.3   118  SER118     -0.1202
     69  CA        34.5040   90.7420   95.1500 C.3   118  SER118      0.2020
     70  C         35.7400   91.2450   94.4210 C.2   118  SER118      0.2618
     71  O         35.7360   91.3730   93.1950 O.2   118  SER118     -0.2717
     72  CB        34.6940   89.2890   95.6260 C.3   118  SER118      0.2103
     73  OG        35.1290   88.4150   94.6000 O.3   118  SER118     -0.2182
     74  N         36.7740   91.5970   95.1730 N.am  119  MET119     -0.1979
     75  CA        38.0010   92.0940   94.5680 C.3   119  MET119      0.1605
     76  C         39.0480   91.0030   94.3800 C.2   119  MET119      0.2287
     77  O         40.0230   91.1790   93.6480 O.2   119  MET119     -0.2864
     78  CB        38.5520   93.2620   95.3800 C.3   119  MET119      0.0413
     79  CG        37.7460   94.5480   95.2140 C.3   119  MET119      0.0598
     80  SD        37.7910   95.2100   93.5190 S.3   119  MET119     -0.1393
     81  CE        39.4930   95.7030   93.4050 C.3   119  MET119      0.0692
     82  N         33.5540  102.2500   92.0450 N.3   166  LYS166     -0.1245
     83  CA        34.8280  101.5640   92.2230 C.3   166  LYS166      0.1561
     84  C         35.8430  102.7010   92.1720 C.2   166  LYS166      0.2260
     85  O         36.0730  103.2870   91.1140 O.2   166  LYS166     -0.2867
     86  CB        35.0670  100.5490   91.1040 C.3   166  LYS166      0.0271
     87  CG        36.2990   99.6950   91.3120 C.3   166  LYS166      0.0035
     88  CD        36.2650   98.4220   90.4870 C.3   166  LYS166      0.0206
     89  CE        37.5260   97.6190   90.7390 C.3   166  LYS166      0.1093
     90  NZ        37.5650   96.3320   89.9910 N.3   166  LYS166     -0.1314
@<TRIPOS>BOND
     1    43    42    2
     2    42    41    1
     3    45    44    1
     4    45    46    1
     5    48    46   ar
     6    32    31    2
     7    41    44    1
     8    41    40    1
     9    46    47   ar
    10    33    30    1
    11    29    30    1
    12    37    36    2
    13    40    36   am
    14    31    30    1
    15    31    34   am
    16    36    35    1
    17    35    34    1
    18    35    38    1
    19    27    26    2
    20    38    39    1
    21    66    65   ar
    22    26    25    1
    23    24    25    1
    24    28    25    1
    25    15    14    2
    26    64    65    1
    27    64    61    1
    28    65    67   ar
    29    14    13    1
    30    63    62    2
    31    62    61    1
    32     1     2    1
    33    61    60    1
    34     2     3    1
    35    13    12    1
    36    13    16    1
    37    60    55   am
    38     4     3    2
    39    50    49    1
    40    50    51    1
    41     3     5   am
    42    52    51    2
    43    19    21   ar
    44    19    17   ar
    45    21    22   ar
    46    51    53   am
    47    16    17    1
    48    55    56    2
    49    55    54    1
    50    17    18   ar
    51     5     6    1
    52    22    23    1
    53    22    20   ar
    54    53    54    1
    55    10     9    1
    56    18    20   ar
    57     6     9    1
    58     6     7    1
    59    90    89    1
    60    54    57    1
    61    58    57    1
    62    88    89    1
    63    88    87    1
    64     9    11    1
    65     7     8    2
    66    57    59    1
    67    86    87    1
    68    86    83    1
    69    85    84    2
    70    82    83    1
    71    84    83    1
    72    71    70    2
    73    81    80    1
    74    80    79    1
    75    77    76    2
    76    68    69    1
    77    76    75    1
    78    70    69    1
    79    70    74   am
    80    75    74    1
    81    75    78    1
    82    73    72    1
    83    69    72    1
    84    79    78    1
