@<TRIPOS>MOLECULE
tmp/1djqB01.pdb
 170 164 0 0 0
SMALL
GASTEIGER

@<TRIPOS>ATOM
      1  N         -0.3520    8.7060   24.0900 N.3   395  VAL395     -0.1231
      2  CA        -0.7730    7.5030   23.3900 C.3   395  VAL395      0.1692
      3  C          0.4580    6.6290   23.1120 C.2   395  VAL395      0.2593
      4  O          1.2730    6.9290   22.2280 O.2   395  VAL395     -0.2718
      5  CB        -1.4460    7.8760   22.0500 C.3   395  VAL395      0.0266
      6  CG1       -1.9590    6.6400   21.3600 C.3   395  VAL395      0.0020
      7  CG2       -2.5900    8.8780   22.2870 C.3   395  VAL395      0.0020
      8  N          0.5770    5.5360   23.8490 N.am  396  GLY396     -0.1942
      9  CA         1.7110    4.6420   23.6800 C.3   396  GLY396      0.2014
     10  C          2.5470    4.6270   24.9490 C.2   396  GLY396      0.2639
     11  O          3.0580    5.6610   25.3900 O.2   396  GLY396     -0.2714
     12  N          2.7350    3.4340   25.5010 N.am  397  ALA397     -0.1963
     13  CA         3.4780    3.2580   26.7390 C.3   397  ALA397      0.1728
     14  C          4.8150    2.5160   26.5730 C.2   397  ALA397      0.2617
     15  O          5.2410    1.7850   27.4720 O.2   397  ALA397     -0.2715
     16  CB         2.6020    2.5440   27.7540 C.3   397  ALA397      0.0334
     17  N          5.4680    2.7030   25.4280 N.am  398  GLY398     -0.1941
     18  CA         6.7520    2.0640   25.1880 C.3   398  GLY398      0.1998
     19  C          7.8390    2.9020   25.8390 C.2   398  GLY398      0.2481
     20  O          7.5230    3.8040   26.6230 O.2   398  GLY398     -0.2729
     21  N          9.1260    2.6650   25.5090 N.am  399  PRO399     -0.2715
     22  CA        10.2410    3.4260   26.0880 C.3   399  PRO399      0.1536
     23  C         10.0560    4.9430   26.0220 C.2   399  PRO399      0.2599
     24  O         10.3040    5.6350   27.0070 O.2   399  PRO399     -0.2715
     25  CB        11.4340    2.9700   25.2500 C.3   399  PRO399      0.0310
     26  CG        11.0960    1.5670   24.9290 C.3   399  PRO399      0.0237
     27  CD         9.6220    1.6310   24.5830 C.3   399  PRO399      0.0939
     28  N          9.5990    5.4700   24.8870 N.am  400  SER400     -0.1936
     29  CA         9.4170    6.9180   24.7890 C.3   400  SER400      0.2055
     30  C          8.1890    7.4490   25.5610 C.2   400  SER400      0.2643
     31  O          8.2900    8.4300   26.3220 O.2   400  SER400     -0.2714
     32  CB         9.3700    7.3690   23.3240 C.3   400  SER400      0.2130
     33  OG         8.3210    6.7420   22.6070 O.3   400  SER400     -0.2179
     34  N          7.0350    6.8180   25.3560 N.am  401  GLY401     -0.1954
     35  CA         5.8230    7.2600   26.0380 C.3   401  GLY401      0.1869
     36  C          5.8760    7.1200   27.5530 C.2   401  GLY401      0.2309
     37  O          5.5370    8.0540   28.2890 O.2   401  GLY401     -0.2863
     38  N         -2.0890    5.9030   27.9280 N.3   418  THR418     -0.1203
     39  CA        -2.8940    4.8160   27.4100 C.3   418  THR418      0.1994
     40  C         -2.1850    3.9980   26.3220 C.2   418  THR418      0.2618
     41  O         -1.3070    4.5050   25.6150 O.2   418  THR418     -0.2717
     42  CB        -4.2670    5.3620   26.9040 C.3   418  THR418      0.1784
     43  OG1       -5.1230    4.2700   26.5410 O.3   418  THR418     -0.2211
     44  CG2       -4.0840    6.2970   25.7090 C.3   418  THR418      0.0376
     45  N         -2.5850    2.7360   26.1880 N.am  419  ASP419     -0.1959
     46  CA        -2.0070    1.8250   25.2020 C.3   419  ASP419      0.1840
     47  C         -2.9970    0.6860   25.0090 C.2   419  ASP419      0.2623
     48  O         -3.8340    0.4360   25.8780 O.2   419  ASP419     -0.2715
     49  CB        -0.6950    1.2450   25.7600 C.3   419  ASP419      0.1450
     50  CG         0.2550    0.7220   24.6750 C.2   419  ASP419      0.3671
     51  OD1       -0.1560   -0.0310   23.7680 O.co2 419  ASP419     -0.2456
     52  OD2        1.4560    1.0480   24.7580 O.co2 419  ASP419     -0.2456
     53  N         -2.9190    0.0200   23.8630 N.am  420  THR420     -0.1937
     54  CA        -3.7590   -1.1370   23.5770 C.3   420  THR420      0.2028
     55  C         -3.1420   -2.3610   24.2550 C.2   420  THR420      0.2642
     56  O         -3.8270   -3.3470   24.5240 O.2   420  THR420     -0.2714
     57  CB        -3.8260   -1.4370   22.0750 C.3   420  THR420      0.1808
     58  OG1       -2.5040   -1.3990   21.5160 O.3   420  THR420     -0.2208
     59  CG2       -4.6950   -0.4300   21.3710 C.3   420  THR420      0.0379
     60  N         -1.8350   -2.3060   24.4950 N.am  421  ALA421     -0.1977
     61  CA        -1.1260   -3.4010   25.1440 C.3   421  ALA421      0.1597
     62  C         -1.5350   -3.5070   26.6090 C.2   421  ALA421      0.2287
     63  O         -1.9040   -2.5140   27.2300 O.2   421  ALA421     -0.2864
     64  CB         0.3710   -3.1880   25.0400 C.3   421  ALA421      0.0319
     65  N          5.8830   -1.3940   25.5740 N.3   426  GLY426     -0.1210
     66  CA         5.8660   -1.3790   24.1250 C.3   426  GLY426      0.1956
     67  C          6.6540   -2.5200   23.5220 C.2   426  GLY426      0.2611
     68  O          6.6080   -3.6380   24.0360 O.2   426  GLY426     -0.2717
     69  N          7.4300   -2.2220   22.4760 N.am  427  HIS427     -0.1975
     70  CA         8.2330   -3.2380   21.7770 C.3   427  HIS427      0.1656
     71  C          9.3080   -3.8790   22.6630 C.2   427  HIS427      0.2291
     72  O          9.7770   -4.9770   22.3880 O.2   427  HIS427     -0.2864
     73  CB         8.8580   -2.6660   20.4810 C.3   427  HIS427      0.0771
     74  CG        10.1640   -1.9540   20.6810 C.ar  427  HIS427      0.0820
     75  ND1       10.2530   -0.6830   21.2070 N.ar  427  HIS427     -0.2267
     76  CD2       11.4350   -2.3270   20.3920 C.ar  427  HIS427      0.1154
     77  CE1       11.5170   -0.3000   21.2320 C.ar  427  HIS427      0.1986
     78  NE2       12.2540   -1.2800   20.7420 N.ar  427  HIS427     -0.2212
     79  N         -8.9250   -0.0520   23.6340 N.3   468  LYS468     -0.1231
     80  CA        -9.0610   -0.1850   22.1980 C.3   468  LYS468      0.1678
     81  C         -8.1930    0.9440   21.6110 C.2   468  LYS468      0.2434
     82  O         -7.9650    1.9720   22.2610 O.2   468  LYS468     -0.2733
     83  CB       -10.5440   -0.1250   21.7780 C.3   468  LYS468      0.0284
     84  CG       -11.1110    1.2310   21.3650 C.3   468  LYS468      0.0035
     85  CD       -11.0840    1.4090   19.8280 C.3   468  LYS468      0.0206
     86  CE       -12.1120    2.4360   19.3280 C.3   468  LYS468      0.1093
     87  NZ       -12.0160    3.7450   20.0300 N.3   468  LYS468     -0.1314
     88  N         -7.6460    0.7380   20.4090 N.am  469  PRO469     -0.2718
     89  CA        -6.7960    1.7320   19.7500 C.3   469  PRO469      0.1535
     90  C         -7.3950    3.1280   19.7080 C.2   469  PRO469      0.2598
     91  O         -8.5330    3.3000   19.2810 O.2   469  PRO469     -0.2715
     92  CB        -6.6690    1.1810   18.3300 C.3   469  PRO469      0.0310
     93  CG        -6.8080   -0.2780   18.5070 C.3   469  PRO469      0.0237
     94  CD        -7.9160   -0.3970   19.5120 C.3   469  PRO469      0.0939
     95  N         -6.6130    4.1200   20.1180 N.am  470  MET470     -0.1978
     96  CA        -7.0560    5.5060   20.0740 C.3   470  MET470      0.1605
     97  C         -7.1960    5.9170   18.6090 C.2   470  MET470      0.2287
     98  O         -6.3640    5.5380   17.7870 O.2   470  MET470     -0.2864
     99  CB        -6.0140    6.4200   20.7170 C.3   470  MET470      0.0413
    100  CG        -5.8860    6.3020   22.2170 C.3   470  MET470      0.0598
    101  SD        -7.3190    6.9600   23.0420 S.3   470  MET470     -0.1393
    102  CE        -6.9370    8.6880   23.0670 C.3   470  MET470      0.0692
    103  N          3.1130    8.6360   20.7890 N.3   486  ALA486     -0.1231
    104  CA         4.2860    7.7810   20.9650 C.3   486  ALA486      0.1694
    105  C          3.9160    6.3770   20.5170 C.2   486  ALA486      0.2593
    106  O          4.1730    5.3880   21.2140 O.2   486  ALA486     -0.2718
    107  CB         4.6800    7.7670   22.4300 C.3   486  ALA486      0.0304
    108  N          3.3470    6.2920   19.3240 N.am  487  THR487     -0.1939
    109  CA         2.8780    5.0340   18.7770 C.3   487  THR487      0.2028
    110  C          3.8830    4.0160   18.2100 C.2   487  THR487      0.2643
    111  O          3.4820    2.9880   17.6680 O.2   487  THR487     -0.2714
    112  CB         1.7460    5.3080   17.7980 C.3   487  THR487      0.1808
    113  OG1        2.1720    6.2810   16.8320 O.3   487  THR487     -0.2208
    114  CG2        0.5450    5.8590   18.5630 C.3   487  THR487      0.0379
    115  N          5.1790    4.2950   18.3170 N.am  488  GLY488     -0.1939
    116  CA         6.1700    3.3350   17.8620 C.3   488  GLY488      0.2014
    117  C          6.4570    3.1130   16.3890 C.2   488  GLY488      0.2638
    118  O          6.1700    3.9520   15.5290 O.2   488  GLY488     -0.2714
    119  N          7.0530    1.9570   16.1180 N.am  489  ALA489     -0.1977
    120  CA         7.4430    1.5590   14.7810 C.3   489  ALA489      0.1597
    121  C          7.2700    0.0510   14.6500 C.2   489  ALA489      0.2287
    122  O          7.1460   -0.6540   15.6550 O.2   489  ALA489     -0.2864
    123  CB         8.9170    1.9420   14.5390 C.3   489  ALA489      0.0319
    124  N          5.1050    4.0720   12.8190 N.3   647  GLU647     -0.1245
    125  CA         3.6650    3.8470   12.7840 C.3   647  GLU647      0.1567
    126  C          3.1370    5.2310   13.1500 C.2   647  GLU647      0.2260
    127  O          3.0570    5.5890   14.3210 O.2   647  GLU647     -0.2867
    128  CB         3.2610    2.8190   13.8400 C.3   647  GLU647      0.0388
    129  CG         1.7590    2.7290   14.0660 C.3   647  GLU647      0.1160
    130  CD         0.9900    2.4900   12.7770 C.2   647  GLU647      0.3649
    131  OE1        1.1540    1.3980   12.1900 O.co2 647  GLU647     -0.2457
    132  OE2        0.2400    3.4000   12.3450 O.co2 647  GLU647     -0.2457
    133  N         -2.0310    7.6850   13.0740 N.3   650  LEU650     -0.1245
    134  CA        -2.8190    8.5200   13.9770 C.3   650  LEU650      0.1561
    135  C         -2.3060    9.9510   13.8760 C.2   650  LEU650      0.2260
    136  O         -3.0950   10.8910   13.7110 O.2   650  LEU650     -0.2867
    137  CB        -2.6750    8.0340   15.4190 C.3   650  LEU650      0.0270
    138  CG        -3.8110    8.1820   16.4380 C.3   650  LEU650      0.0019
    139  CD1       -3.2090    8.1000   17.8220 C.3   650  LEU650      0.0001
    140  CD2       -4.5640    9.4820   16.2960 C.3   650  LEU650      0.0001
    141  N          6.9050   11.7500   19.1890 N.3   672  ILE672     -0.1231
    142  CA         8.1580   11.3090   19.8020 C.3   672  ILE672      0.1692
    143  C          8.5320    9.8400   19.5620 C.2   672  ILE672      0.2593
    144  O          7.7380    9.0550   19.0400 O.2   672  ILE672     -0.2718
    145  CB         8.1570   11.5610   21.3330 C.3   672  ILE672      0.0266
    146  CG1        7.1650   10.6410   22.0390 C.3   672  ILE672      0.0019
    147  CG2        7.8050   13.0050   21.6310 C.3   672  ILE672      0.0020
    148  CD1        7.2850   10.6830   23.5520 C.3   672  ILE672      0.0001
    149  N          9.7620    9.4850   19.9310 N.am  673  GLY673     -0.1942
    150  CA        10.2320    8.1140   19.7930 C.3   673  GLY673      0.2014
    151  C         10.2780    7.5500   18.3920 C.2   673  GLY673      0.2639
    152  O         10.4560    8.2750   17.4140 O.2   673  GLY673     -0.2714
    153  N         10.0700    6.2430   18.2980 N.am  674  ASP674     -0.1957
    154  CA        10.1150    5.5300   17.0280 C.3   674  ASP674      0.1840
    155  C          9.0940    6.0120   16.0210 C.2   674  ASP674      0.2621
    156  O          9.3020    5.8630   14.8090 O.2   674  ASP674     -0.2715
    157  CB         9.9560    4.0180   17.2510 C.3   674  ASP674      0.1450
    158  CG        11.1170    3.4090   18.0330 C.2   674  ASP674      0.3671
    159  OD1       10.8930    2.4460   18.8000 O.co2 674  ASP674     -0.2456
    160  OD2       12.2600    3.8830   17.8780 O.co2 674  ASP674     -0.2456
    161  N          7.9830    6.5550   16.5190 N.am  675  ALA675     -0.1977
    162  CA         6.9030    7.0690   15.6730 C.3   675  ALA675      0.1597
    163  C          7.3690    8.2690   14.8490 C.2   675  ALA675      0.2287
    164  O          6.7970    8.5610   13.7940 O.2   675  ALA675     -0.2864
    165  CB         5.6810    7.4400   16.5340 C.3   675  ALA675      0.0319
    166  N         15.0060    6.6640   21.9540 N.3   684  ALA684     -0.1245
    167  CA        13.5530    6.7310   22.0170 C.3   684  ALA684      0.1562
    168  C         13.2430    7.2920   23.4060 C.2   684  ALA684      0.2260
    169  O         12.5400    8.2920   23.5380 O.2   684  ALA684     -0.2867
    170  CB        12.9350    5.3500   21.8350 C.3   684  ALA684      0.0290
@<TRIPOS>BOND
     1   131   130   ar
     2   132   130   ar
     3   130   129    1
     4   125   124    1
     5   125   126    1
     6   125   128    1
     7   133   134    1
     8   126   127    2
     9   136   135    2
    10   164   163    2
    11   128   129    1
    12   135   134    1
    13   134   137    1
    14   123   120    1
    15   121   120    1
    16   121   122    2
    17   120   119    1
    18   156   155    2
    19   163   162    1
    20   137   138    1
    21   118   117    2
    22   162   161    1
    23   162   165    1
    24   155   161   am
    25   155   154    1
    26   119   117   am
    27   140   138    1
    28   117   116    1
    29   138   139    1
    30   113   112    1
    31   154   157    1
    32   154   153    1
    33   157   158    1
    34   152   151    2
    35   111   110    2
    36    98    97    2
    37   112   114    1
    38   112   109    1
    39   116   115    1
    40   160   158   ar
    41   158   159   ar
    42   110   115   am
    43   110   109    1
    44   153   151   am
    45    92    93    1
    46    92    89    1
    47   151   150    1
    48    93    94    1
    49    97    96    1
    50   109   108    1
    51   144   143    2
    52   141   142    1
    53    91    90    2
    54   108   105   am
    55    86    85    1
    56    86    87    1
    57    94    88    1
    58   143   142    1
    59   143   149   am
    60    90    89    1
    61    90    95   am
    62    89    88    1
    63   150   149    1
    64   142   145    1
    65    85    84    1
    66    96    95    1
    67    96    99    1
    68    76    74   ar
    69    76    78   ar
    70    88    81   am
    71    73    74    1
    72    73    70    1
    73   105   104    1
    74   105   106    2
    75    74    75   ar
    76    99   100    1
    77    78    77   ar
    78   103   104    1
    79   104   107    1
    80    75    77   ar
    81   145   147    1
    82   145   146    1
    83     6     5    1
    84    84    83    1
    85    59    57    1
    86    58    57    1
    87    81    80    1
    88    81    82    2
    89    70    69    1
    90    70    71    1
    91    83    80    1
    92   170   167    1
    93   166   167    1
    94   167   168    1
    95   146   148    1
    96     5     7    1
    97     5     2    1
    98    57    54    1
    99    80    79    1
   100   100   101    1
   101     4     3    2
   102    72    71    2
   103    69    67   am
   104    33    32    1
   105   101   102    1
   106     3     2    1
   107     3     8   am
   108    32    29    1
   109     2     1    1
   110   168   169    2
   111    67    68    2
   112    67    66    1
   113    54    53    1
   114    54    55    1
   115     9     8    1
   116     9    10    1
   117    51    50   ar
   118    53    47   am
   119    66    65    1
   120    55    60   am
   121    55    56    2
   122    60    61    1
   123    27    26    1
   124    27    21    1
   125    50    52   ar
   126    50    49    1
   127    29    28    1
   128    29    30    1
   129    28    23   am
   130    26    25    1
   131    10    11    2
   132    10    12   am
   133    47    46    1
   134    47    48    2
   135    64    61    1
   136    61    62    1
   137    18    17    1
   138    18    19    1
   139    46    49    1
   140    46    45    1
   141    25    22    1
   142    34    30   am
   143    34    35    1
   144    17    14   am
   145    12    13    1
   146    21    19   am
   147    21    22    1
   148    30    31    2
   149    41    40    2
   150    44    42    1
   151    19    20    2
   152    23    22    1
   153    23    24    2
   154    35    36    1
   155    45    40   am
   156    40    39    1
   157    43    42    1
   158    14    13    1
   159    14    15    2
   160    62    63    2
   161    13    16    1
   162    42    39    1
   163    39    38    1
   164    36    37    2
