@<TRIPOS>MOLECULE
tmp/1djqB00.pdb
 230 227 0 0 0
SMALL
GASTEIGER

@<TRIPOS>ATOM
      1  N         34.6570    3.2610   39.6410 N.3    27  VAL27      -0.1231
      2  CA        35.9390    3.0000   38.9790 C.3    27  VAL27       0.1678
      3  C         36.0720    3.8680   37.7220 C.2    27  VAL27       0.2434
      4  O         35.0990    4.4830   37.2680 O.2    27  VAL27      -0.2733
      5  CB        36.0940    1.5200   38.5710 C.3    27  VAL27       0.0265
      6  CG1       36.1070    0.6270   39.8120 C.3    27  VAL27       0.0020
      7  CG2       34.9850    1.1280   37.6020 C.3    27  VAL27       0.0020
      8  N         37.2920    3.9680   37.1680 N.am   28  PRO28      -0.2718
      9  CA        37.4670    4.7890   35.9630 C.3    28  PRO28       0.1535
     10  C         36.6650    4.2360   34.7850 C.2    28  PRO28       0.2599
     11  O         36.6120    3.0240   34.5700 O.2    28  PRO28      -0.2715
     12  CB        38.9760    4.6890   35.6880 C.3    28  PRO28       0.0310
     13  CG        39.5770    4.3790   37.0420 C.3    28  PRO28       0.0237
     14  CD        38.5790    3.4040   37.6240 C.3    28  PRO28       0.0939
     15  N         36.0030    5.1240   34.0540 N.am   29  HIS29      -0.1960
     16  CA        35.2370    4.7260   32.8810 C.3    29  HIS29       0.1787
     17  C         35.0500    5.9370   31.9910 C.2    29  HIS29       0.2620
     18  O         34.8940    7.0600   32.4790 O.2    29  HIS29      -0.2715
     19  CB        33.8860    4.0630   33.2400 C.3    29  HIS29       0.0785
     20  CG        32.8410    5.0130   33.7410 C.ar   29  HIS29       0.0821
     21  ND1       32.0660    5.7860   32.9000 N.ar   29  HIS29      -0.2267
     22  CD2       32.4550    5.3250   35.0020 C.ar   29  HIS29       0.1154
     23  CE1       31.2550    6.5370   33.6230 C.ar   29  HIS29       0.1986
     24  NE2       31.4710    6.2760   34.9000 N.ar   29  HIS29      -0.2212
     25  N         35.1550    5.7100   30.6840 N.am   30  ALA30      -0.1977
     26  CA        34.9970    6.7670   29.6940 C.3    30  ALA30       0.1597
     27  C         33.5580    7.2370   29.6230 C.2    30  ALA30       0.2287
     28  O         32.6280    6.4850   29.9340 O.2    30  ALA30      -0.2864
     29  CB        35.4490    6.2820   28.3260 C.3    30  ALA30       0.0319
     30  N         38.2260    8.9210   33.3550 N.3    59  GLU59      -0.1231
     31  CA        38.4490    7.7570   32.4960 C.3    59  GLU59       0.1699
     32  C         39.9870    7.6640   32.3460 C.2    59  GLU59       0.2592
     33  O         40.7270    8.4410   32.9840 O.2    59  GLU59      -0.2718
     34  CB        37.7870    7.9450   31.1130 C.3    59  GLU59       0.0402
     35  CG        38.2040    9.1950   30.3400 C.3    59  GLU59       0.1161
     36  CD        37.2860   10.3880   30.5880 C.2    59  GLU59       0.3649
     37  OE1       37.2950   10.9580   31.7040 O.co2  59  GLU59      -0.2457
     38  OE2       36.5530   10.7640   29.6540 O.co2  59  GLU59      -0.2457
     39  N         40.4620    6.7300   31.5190 N.am   60  TYR60      -0.1976
     40  CA        41.9000    6.5680   31.3020 C.3    60  TYR60       0.1639
     41  C         42.4890    7.9150   30.9130 C.2    60  TYR60       0.2290
     42  O         41.9670    8.6090   30.0270 O.2    60  TYR60      -0.2864
     43  CB        42.2090    5.4800   30.2630 C.3    60  TYR60       0.0560
     44  CG        41.6870    5.7120   28.8560 C.ar   60  TYR60      -0.0198
     45  CD1       42.4000    5.2420   27.7530 C.ar   60  TYR60      -0.0009
     46  CD2       40.4710    6.3610   28.6240 C.ar   60  TYR60      -0.0009
     47  CE1       41.9260    5.4070   26.4600 C.ar   60  TYR60       0.0417
     48  CE2       39.9780    6.5320   27.3220 C.ar   60  TYR60       0.0417
     49  CZ        40.7190    6.0530   26.2510 C.ar   60  TYR60       0.1957
     50  OH        40.2790    6.2570   24.9690 O.3    60  TYR60      -0.2866
     51  N         43.2190    7.9700   36.4630 N.3   103  GLU103     -0.1245
     52  CA        43.8290    6.7090   36.0320 C.3   103  GLU103      0.1567
     53  C         44.9530    6.9880   35.0140 C.2   103  GLU103      0.2260
     54  O         44.6820    7.1910   33.8300 O.2   103  GLU103     -0.2867
     55  CB        42.7480    5.8080   35.4200 C.3   103  GLU103      0.0388
     56  CG        43.1440    4.3440   35.2580 C.3   103  GLU103      0.1160
     57  CD        42.0960    3.5230   34.5080 C.2   103  GLU103      0.3649
     58  OE1       41.5660    4.0130   33.4880 O.co2 103  GLU103     -0.2457
     59  OE2       41.8020    2.3830   34.9330 O.co2 103  GLU103     -0.2457
     60  N         47.7060    2.4630   35.9430 N.3   169  TYR169     -0.1241
     61  CA        46.7890    1.6340   35.1730 C.3   169  TYR169      0.1605
     62  C         47.4310    0.4390   34.4620 C.2   169  TYR169      0.2264
     63  O         48.1210    0.6050   33.4510 O.2   169  TYR169     -0.2867
     64  CB        46.0740    2.5750   34.1790 C.3   169  TYR169      0.0534
     65  CG        44.9740    2.0030   33.3060 C.ar  169  TYR169     -0.0201
     66  CD1       44.5870    2.6790   32.1500 C.ar  169  TYR169     -0.0009
     67  CD2       44.2920    0.8240   33.6420 C.ar  169  TYR169     -0.0009
     68  CE1       43.5510    2.2110   31.3440 C.ar  169  TYR169      0.0417
     69  CE2       43.2470    0.3430   32.8360 C.ar  169  TYR169      0.0417
     70  CZ        42.8890    1.0480   31.6900 C.ar  169  TYR169      0.1957
     71  OH        41.8780    0.6120   30.8730 O.3   169  TYR169     -0.2866
     72  N         43.3830   -4.0340   30.8530 N.3   172  HIS172     -0.1241
     73  CA        43.0350   -3.8720   29.4510 C.3   172  HIS172      0.1621
     74  C         44.2880   -3.8780   28.5900 C.2   172  HIS172      0.2264
     75  O         44.4080   -3.1200   27.6240 O.2   172  HIS172     -0.2867
     76  CB        42.2280   -2.5910   29.2500 C.3   172  HIS172      0.0745
     77  CG        40.9350   -2.5930   29.9970 C.ar  172  HIS172      0.0817
     78  ND1       40.6430   -1.6870   30.9960 N.ar  172  HIS172     -0.2268
     79  CD2       39.8910   -3.4530   29.9510 C.ar  172  HIS172      0.1154
     80  CE1       39.4770   -1.9950   31.5350 C.ar  172  HIS172      0.1986
     81  NE2       39.0020   -3.0630   30.9190 N.ar  172  HIS172     -0.2212
     82  N         45.3180   -0.6370   38.9830 N.3   222  ARG222     -0.1245
     83  CA        44.2370   -1.4000   38.3770 C.3   222  ARG222      0.1563
     84  C         44.9570   -2.5210   37.6470 C.2   222  ARG222      0.2260
     85  O         45.8350   -2.2570   36.8230 O.2   222  ARG222     -0.2867
     86  CB        43.4120   -0.5310   37.4320 C.3   222  ARG222      0.0307
     87  CG        42.1130   -1.1920   37.0590 C.3   222  ARG222      0.0489
     88  CD        41.0090   -0.1960   36.7500 C.3   222  ARG222      0.2205
     89  NE        39.7320   -0.8900   36.8720 N.pl3 222  ARG222     -0.0865
     90  CZ        38.7110   -0.7730   36.0320 C.cat 222  ARG222      0.5346
     91  NH1       37.6060   -1.4750   36.2520 N.pl3 222  ARG222      0.1354
     92  NH2       38.7870    0.0450   34.9910 N.pl3 222  ARG222      0.1354
     93  N         37.3870   -6.5080   25.7340 N.3   264  TRP264     -0.1241
     94  CA        37.1200   -6.0830   27.0960 C.3   264  TRP264      0.1605
     95  C         35.6610   -6.2010   27.5150 C.2   264  TRP264      0.2264
     96  O         35.2880   -5.7730   28.6030 O.2   264  TRP264     -0.2867
     97  CB        37.7280   -4.7180   27.4230 C.3   264  TRP264      0.0550
     98  CG        37.1400   -3.6000   26.7180 C.ar  264  TRP264      0.0003
     99  CD1       37.2450   -3.3230   25.3960 C.ar  264  TRP264      0.0946
    100  CD2       36.3460   -2.5650   27.2930 C.ar  264  TRP264      0.0152
    101  NE1       36.5670   -2.1680   25.1010 N.ar  264  TRP264     -0.2442
    102  CE2       36.0010   -1.6780   26.2480 C.ar  264  TRP264      0.0810
    103  CE3       35.8910   -2.2980   28.5900 C.ar  264  TRP264      0.0012
    104  CZ2       35.2160   -0.5360   26.4590 C.ar  264  TRP264      0.0191
    105  CZ3       35.1120   -1.1680   28.8020 C.ar  264  TRP264      0.0001
    106  CH2       34.7820   -0.2980   27.7390 C.ar  264  TRP264      0.0015
    107  N         35.2920   -7.8860   30.6230 N.3   267  ASP267     -0.1225
    108  CA        35.3670   -7.0530   31.8140 C.3   267  ASP267      0.1805
    109  C         33.9690   -6.3970   31.9420 C.2   267  ASP267      0.2597
    110  O         33.2190   -6.6770   32.8830 O.2   267  ASP267     -0.2718
    111  CB        36.4560   -5.9830   31.6330 C.3   267  ASP267      0.1424
    112  CG        36.3110   -4.8060   32.6040 C.2   267  ASP267      0.3668
    113  OD1       35.7750   -4.9730   33.7190 O.co2 267  ASP267     -0.2456
    114  OD2       36.7220   -3.6910   32.2430 O.co2 267  ASP267     -0.2456
    115  N         33.6300   -5.5490   30.9700 N.am  268  ALA268     -0.1979
    116  CA        32.3540   -4.8480   30.9290 C.3   268  ALA268      0.1597
    117  C         31.3180   -5.8240   30.3800 C.2   268  ALA268      0.2287
    118  O         30.7610   -5.6320   29.2890 O.2   268  ALA268     -0.2864
    119  CB        32.4750   -3.6170   30.0370 C.3   268  ALA268      0.0319
    120  N         34.8750   -4.8900   39.8720 N.3   297  VAL297     -0.1231
    121  CA        33.5600   -4.6900   39.2490 C.3   297  VAL297      0.1692
    122  C         32.8750   -5.9890   38.8290 C.2   297  VAL297      0.2593
    123  O         33.5250   -7.0160   38.6690 O.2   297  VAL297     -0.2718
    124  CB        33.6430   -3.7700   38.0100 C.3   297  VAL297      0.0266
    125  CG1       34.1890   -2.4160   38.3960 C.3   297  VAL297      0.0020
    126  CG2       34.4910   -4.4230   36.9180 C.3   297  VAL297      0.0020
    127  N         31.5600   -5.9320   38.6560 N.am  298  GLY298     -0.1942
    128  CA        30.8010   -7.1010   38.2350 C.3   298  GLY298      0.2014
    129  C         29.3510   -6.7190   37.9900 C.2   298  GLY298      0.2639
    130  O         28.4360   -7.5040   38.2430 O.2   298  GLY298     -0.2714
    131  N         29.1570   -5.5060   37.4810 N.am  299  ARG299     -0.1963
    132  CA        27.8340   -4.9530   37.2060 C.3   299  ARG299      0.1729
    133  C         26.9100   -5.1060   38.4210 C.2   299  ARG299      0.2616
    134  O         25.7920   -5.6270   38.3150 O.2   299  ARG299     -0.2715
    135  CB        27.2200   -5.5870   35.9540 C.3   299  ARG299      0.0348
    136  CG        26.3210   -4.6160   35.1710 C.3   299  ARG299      0.0492
    137  CD        25.8190   -5.2220   33.8550 C.3   299  ARG299      0.2205
    138  NE        24.8450   -6.2870   34.0730 N.pl3 299  ARG299     -0.0865
    139  CZ        25.0090   -7.5500   33.6890 C.cat 299  ARG299      0.5346
    140  NH1       24.0550   -8.4430   33.9360 N.pl3 299  ARG299      0.1354
    141  NH2       26.1350   -7.9270   33.0830 N.pl3 299  ARG299      0.1354
    142  N         27.4000   -4.6600   39.5760 N.am  300  TYR300     -0.1974
    143  CA        26.6460   -4.7340   40.8300 C.3   300  TYR300      0.1639
    144  C         25.5730   -3.6570   40.9650 C.2   300  TYR300      0.2290
    145  O         25.8830   -2.4640   41.0420 O.2   300  TYR300     -0.2864
    146  CB        27.5990   -4.6860   42.0340 C.3   300  TYR300      0.0560
    147  CG        28.5230   -5.8860   42.0990 C.ar  300  TYR300     -0.0198
    148  CD1       28.0070   -7.1820   42.2660 C.ar  300  TYR300     -0.0009
    149  CD2       29.9090   -5.7380   41.9410 C.ar  300  TYR300     -0.0009
    150  CE1       28.8470   -8.3030   42.2700 C.ar  300  TYR300      0.0417
    151  CE2       30.7660   -6.8610   41.9410 C.ar  300  TYR300      0.0417
    152  CZ        30.2280   -8.1340   42.1040 C.ar  300  TYR300      0.1957
    153  OH        31.0590   -9.2350   42.0880 O.3   300  TYR300     -0.2866
    154  N         32.9310   -1.6700   43.5960 N.3   319  GLY319     -0.1210
    155  CA        33.3230   -0.8390   42.4730 C.3   319  GLY319      0.1956
    156  C         32.2930   -0.9590   41.3750 C.2   319  GLY319      0.2612
    157  O         31.8770   -2.0740   41.0370 O.2   319  GLY319     -0.2717
    158  N         31.8910    0.1740   40.8100 N.am  320  CYS320     -0.1956
    159  CA        30.8880    0.1990   39.7480 C.3   320  CYS320      0.1843
    160  C         31.2400    1.1920   38.6620 C.2   320  CYS320      0.2625
    161  O         31.9160    2.1990   38.9080 O.2   320  CYS320     -0.2714
    162  CB        29.5190    0.6260   40.3160 C.3   320  CYS320      0.0997
    163  SG        28.8510   -0.4380   41.6040 S.3   320  CYS320     -0.0797
    164  N         30.7630    0.9100   37.4580 N.am  321  ALA321     -0.1963
    165  CA        30.9500    1.8150   36.3350 C.3   321  ALA321      0.1728
    166  C         29.5440    2.0140   35.7620 C.2   321  ALA321      0.2616
    167  O         28.8780    2.9840   36.0950 O.2   321  ALA321     -0.2715
    168  CB        31.8880    1.2260   35.2940 C.3   321  ALA321      0.0334
    169  N         29.0590    1.0350   35.0110 N.am  322  ARG322     -0.1964
    170  CA        27.7290    1.1030   34.4080 C.3   322  ARG322      0.1714
    171  C         26.6040    1.3750   35.4170 C.2   322  ARG322      0.2458
    172  O         25.7540    2.2490   35.1930 O.2   322  ARG322     -0.2730
    173  CB        27.4690   -0.1580   33.5640 C.3   322  ARG322      0.0347
    174  CG        28.3300   -0.1750   32.3050 C.3   322  ARG322      0.0492
    175  CD        28.3410   -1.5100   31.5900 C.3   322  ARG322      0.2205
    176  NE        28.8150   -2.5820   32.4620 N.pl3 322  ARG322     -0.0865
    177  CZ        28.7140   -3.8720   32.1670 C.cat 322  ARG322      0.5346
    178  NH1       29.1550   -4.7920   33.0240 N.pl3 322  ARG322      0.1354
    179  NH2       28.1600   -4.2390   31.0140 N.pl3 322  ARG322      0.1354
    180  N         26.6070    0.6680   36.5650 N.am  323  PRO323     -0.2727
    181  CA        25.5460    0.9210   37.5440 C.3   323  PRO323      0.1402
    182  C         25.4730    2.3920   37.9580 C.2   323  PRO323      0.2269
    183  O         24.3790    2.9270   38.1670 O.2   323  PRO323     -0.2865
    184  CB        25.9470    0.0230   38.7050 C.3   323  PRO323      0.0296
    185  CG        26.5130   -1.1750   37.9900 C.3   323  PRO323      0.0237
    186  CD        27.4070   -0.5070   36.9610 C.3   323  PRO323      0.0939
    187  N         26.2640    4.9420   36.0230 N.3   325  ILE325     -0.1245
    188  CA        25.8030    5.7430   34.8920 C.3   325  ILE325      0.1561
    189  C         24.2670    5.6860   34.8370 C.2   325  ILE325      0.2260
    190  O         23.5980    6.7120   34.6490 O.2   325  ILE325     -0.2867
    191  CB        26.3760    5.2110   33.5630 C.3   325  ILE325      0.0252
    192  CG1       27.8890    5.4450   33.5050 C.3   325  ILE325      0.0019
    193  CG2       25.6770    5.8700   32.3710 C.3   325  ILE325      0.0019
    194  CD1       28.5180    4.8160   32.2790 C.3   325  ILE325      0.0001
    195  N         26.3680    2.7160   26.2670 N.3   351  CYS351     -0.1221
    196  CA        27.1750    3.8120   26.7870 C.3   351  CYS351      0.1808
    197  C         28.5900    3.6010   26.2490 C.2   351  CYS351      0.2601
    198  O         29.2160    4.5220   25.7290 O.2   351  CYS351     -0.2717
    199  CB        27.1770    3.7870   28.3180 C.3   351  CYS351      0.0970
    200  SG        27.3500    2.1300   29.0270 S.3   351  CYS351     -0.0800
    201  N         29.0560    2.3590   26.3510 N.am  352  ILE352     -0.1979
    202  CA        30.3700    1.9520   25.8650 C.3   352  ILE352      0.1595
    203  C         30.4520    2.0980   24.3430 C.2   352  ILE352      0.2287
    204  O         31.4710    2.5510   23.8270 O.2   352  ILE352     -0.2864
    205  CB        30.6690    0.4710   26.2360 C.3   352  ILE352      0.0276
    206  CG1       30.8910    0.3370   27.7420 C.3   352  ILE352      0.0022
    207  CG2       31.8720   -0.0500   25.4650 C.3   352  ILE352      0.0022
    208  CD1       30.9440   -1.0900   28.2260 C.3   352  ILE352      0.0001
    209  N         31.9210    5.3610   23.1390 N.3   355  TRP355     -0.1241
    210  CA        33.3600    5.5200   23.3290 C.3   355  TRP355      0.1605
    211  C         34.0710    4.7910   22.1860 C.2   355  TRP355      0.2264
    212  O         34.9240    5.3600   21.5020 O.2   355  TRP355     -0.2867
    213  CB        33.8130    4.9200   24.6740 C.3   355  TRP355      0.0550
    214  CG        35.3080    4.9450   24.8680 C.ar  355  TRP355      0.0003
    215  CD1       36.0880    6.0490   25.0790 C.ar  355  TRP355      0.0946
    216  CD2       36.2090    3.8260   24.7960 C.ar  355  TRP355      0.0152
    217  NE1       37.4150    5.6860   25.1340 N.ar  355  TRP355     -0.2442
    218  CE2       37.5190    4.3320   24.9620 C.ar  355  TRP355      0.0810
    219  CE3       36.0370    2.4470   24.5970 C.ar  355  TRP355      0.0012
    220  CZ2       38.6560    3.5070   24.9340 C.ar  355  TRP355      0.0191
    221  CZ3       37.1750    1.6200   24.5690 C.ar  355  TRP355      0.0001
    222  CH2       38.4660    2.1590   24.7370 C.ar  355  TRP355      0.0015
    223  N         28.8880    9.9180   25.5240 N.3   362  MET362     -0.1245
    224  CA        28.1650    8.7580   26.0120 C.3   362  MET362      0.1570
    225  C         26.6520    9.0310   26.1630 C.2   362  MET362      0.2261
    226  O         26.2300   10.1730   26.3960 O.2   362  MET362     -0.2867
    227  CB        28.7470    8.3880   27.3720 C.3   362  MET362      0.0387
    228  CG        27.7970    7.6720   28.3190 C.3   362  MET362      0.0595
    229  SD        28.3780    7.6920   30.0170 S.3   362  MET362     -0.1393
    230  CE        27.8920    9.3180   30.5200 C.3   362  MET362      0.0692
@<TRIPOS>BOND
     1   212   211    2
     2   211   210    1
     3   209   210    1
     4   210   213    1
     5   204   203    2
     6   203   202    1
     7   221   219   ar
     8   221   222   ar
     9   219   216   ar
    10   213   214    1
    11   222   220   ar
    12   216   214   ar
    13   216   218   ar
    14   214   215   ar
    15   220   218   ar
    16   218   217   ar
    17    50    49    1
    18   215   217   ar
    19   101    99   ar
    20   101   102   ar
    21    99    98   ar
    22   207   205    1
    23   223   224    1
    24   198   197    2
    25    93    94    1
    26   202   205    1
    27   202   201    1
    28   224   225    1
    29   224   227    1
    30   225   226    2
    31   205   206    1
    32   102   104   ar
    33   102   100   ar
    34   197   201   am
    35   197   196    1
    36    49    47   ar
    37    49    48   ar
    38   195   196    1
    39   104   106   ar
    40    47    45   ar
    41    98   100   ar
    42    98    97    1
    43   196   199    1
    44    94    97    1
    45    94    95    1
    46   100   103   ar
    47    48    46   ar
    48   227   228    1
    49    95    96    2
    50    75    74    2
    51   106   105   ar
    52   206   208    1
    53    45    44   ar
    54   199   200    1
    55   228   229    1
    56    29    26    1
    57   103   105   ar
    58    74    73    1
    59    46    44   ar
    60    44    43    1
    61    76    73    1
    62    76    77    1
    63   118   117    2
    64    73    72    1
    65    27    26    1
    66    27    28    2
    67    38    36   ar
    68    26    25    1
    69    79    77   ar
    70    79    81   ar
    71    77    78   ar
    72   229   230    1
    73    42    41    2
    74   119   116    1
    75    43    40    1
    76    35    36    1
    77    35    34    1
    78   117   116    1
    79    36    37   ar
    80   107   108    1
    81    25    17   am
    82    71    70    1
    83    41    40    1
    84    81    80   ar
    85   116   115    1
    86   115   109   am
    87    78    80   ar
    88   179   177    1
    89    34    31    1
    90    40    39    1
    91    68    70   ar
    92    68    66   ar
    93    39    32   am
    94   175   174    1
    95   175   176    1
    96   111   108    1
    97   111   112    1
    98    70    69   ar
    99   108   109    1
   100   109   110    2
   101    17    18    2
   102    17    16    1
   103    66    65   ar
   104   177   176    2
   105   177   178    1
   106   114   112   ar
   107   194   192    1
   108   174   173    1
   109    32    31    1
   110    32    33    2
   111   193   191    1
   112    31    30    1
   113   112   113   ar
   114    69    67   ar
   115    16    19    1
   116    16    15    1
   117    21    23   ar
   118    21    20   ar
   119   141   139    1
   120    19    20    1
   121    65    67   ar
   122    65    64    1
   123    63    62    2
   124    58    57   ar
   125   192   191    1
   126   191   188    1
   127   173   170    1
   128    23    24   ar
   129   139   140    1
   130   139   138    2
   131    20    22   ar
   132    54    53    2
   133   137   138    1
   134   137   136    1
   135    15    10   am
   136    64    61    1
   137   170   169    1
   138   170   171    1
   139    62    61    1
   140    57    59   ar
   141    57    56    1
   142    11    10    2
   143   190   189    2
   144    10     9    1
   145   189   188    1
   146   188   187    1
   147    24    22   ar
   148    92    90    1
   149   169   166   am
   150    53    52    1
   151   136   135    1
   152    61    60    1
   153   172   171    2
   154    56    55    1
   155   168   165    1
   156   171   180   am
   157    55    52    1
   158    12     9    1
   159    12    13    1
   160   166   167    2
   161   166   165    1
   162   135   132    1
   163     9     8    1
   164    52    51    1
   165    90    91    1
   166    90    89    2
   167   165   164    1
   168   180   186    1
   169   180   181    1
   170    88    89    1
   171    88    87    1
   172    85    84    2
   173   126   124    1
   174   186   185    1
   175    13    14    1
   176    87    86    1
   177     8    14    1
   178     8     3   am
   179   132   131    1
   180   132   133    1
   181     4     3    2
   182    86    83    1
   183   164   160   am
   184   131   129   am
   185   181   182    1
   186   181   184    1
   187     7     5    1
   188    84    83    1
   189     3     2    1
   190   182   183    2
   191   185   184    1
   192   129   128    1
   193   129   130    2
   194   124   125    1
   195   124   121    1
   196   128   127    1
   197   134   133    2
   198    83    82    1
   199   133   142   am
   200     5     2    1
   201     5     6    1
   202   127   122   am
   203   160   161    2
   204   160   159    1
   205   123   122    2
   206   122   121    1
   207     2     1    1
   208   121   120    1
   209   142   143    1
   210   159   162    1
   211   159   158    1
   212   162   163    1
   213   158   156   am
   214   143   144    1
   215   143   146    1
   216   144   145    2
   217   157   156    2
   218   156   155    1
   219   151   149   ar
   220   151   152   ar
   221   149   147   ar
   222   146   147    1
   223   153   152    1
   224   147   148   ar
   225   152   150   ar
   226   148   150   ar
   227   155   154    1
