@<TRIPOS>MOLECULE
tmp/1djwA00.pdb
 90 86 0 0 0
SMALL
GASTEIGER

@<TRIPOS>ATOM
      1  N        120.2900   32.6870   19.9720 N.3   112  HIS112     -0.1226
      2  CA       121.0240   33.9200   20.0410 C.3   112  HIS112      0.1752
      3  C        121.1460   34.3340   21.4830 C.2   112  HIS112      0.2596
      4  O        120.1310   34.4050   22.1800 O.2   112  HIS112     -0.2718
      5  CB       120.2670   35.0130   19.2790 C.3   112  HIS112      0.0759
      6  CG       120.8700   36.3580   19.4280 C.ar  112  HIS112      0.0818
      7  ND1      120.2700   37.3540   20.1600 N.ar  112  HIS112     -0.2268
      8  CD2      122.0340   36.8680   18.9680 C.ar  112  HIS112      0.1154
      9  CE1      121.0350   38.4270   20.1410 C.ar  112  HIS112      0.1986
     10  NE2      122.1140   38.1550   19.4260 N.ar  112  HIS112     -0.2212
     11  N        122.3770   34.6650   21.9020 N.am  113  ASN113     -0.1974
     12  CA       122.6890   35.1150   23.2730 C.3   113  ASN113      0.1688
     13  C        122.0020   34.1980   24.2070 C.2   113  ASN113      0.2292
     14  O        121.1210   34.6060   24.9670 O.2   113  ASN113     -0.2864
     15  CB       122.2010   36.5300   23.5110 C.3   113  ASN113      0.1181
     16  CG       123.1000   37.5650   22.8440 C.2   113  ASN113      0.2629
     17  OD1      124.1210   37.2390   22.2630 O.2   113  ASN113     -0.2716
     18  ND2      122.7440   38.8250   22.9770 N.am  113  ASN113     -0.0877
     19  N        125.3600   30.3300   21.9450 N.3   142  GLU142     -0.1245
     20  CA       126.2150   31.4980   21.9880 C.3   142  GLU142      0.1567
     21  C        126.8150   31.7600   23.3330 C.2   142  GLU142      0.2260
     22  O        126.0970   31.8590   24.3260 O.2   142  GLU142     -0.2867
     23  CB       125.3710   32.7300   21.6660 C.3   142  GLU142      0.0388
     24  CG       125.3990   33.1790   20.2100 C.3   142  GLU142      0.1160
     25  CD       124.8030   34.5660   20.0230 C.2   142  GLU142      0.3649
     26  OE1      125.3250   35.5290   20.6350 O.co2 142  GLU142     -0.2457
     27  OE2      123.8080   34.6960   19.2810 O.co2 142  GLU142     -0.2457
     28  N        129.1120   34.6920   25.2190 N.3   144  ASP144     -0.1239
     29  CA       129.7480   36.0250   25.1810 C.3   144  ASP144      0.1674
     30  C        130.6760   36.1030   26.3710 C.2   144  ASP144      0.2266
     31  O        130.2270   36.3400   27.5010 O.2   144  ASP144     -0.2867
     32  CB       128.7030   37.1550   25.2900 C.3   144  ASP144      0.1410
     33  CG       127.8700   37.3040   24.0090 C.2   144  ASP144      0.3668
     34  OD1      128.0860   36.4910   23.0800 O.co2 144  ASP144     -0.2456
     35  OD2      126.9890   38.1940   23.9400 O.co2 144  ASP144     -0.2456
     36  N        125.9620   40.0130   28.5480 N.3   157  HIS157     -0.1241
     37  CA       125.8380   40.8640   27.3750 C.3   157  HIS157      0.1621
     38  C        126.6800   42.1060   27.5450 C.2   157  HIS157      0.2264
     39  O        126.3050   43.0230   28.2890 O.2   157  HIS157     -0.2867
     40  CB       124.3920   41.2510   27.1700 C.3   157  HIS157      0.0745
     41  CG       124.1440   41.8570   25.8420 C.ar  157  HIS157      0.0817
     42  ND1      122.9780   42.5330   25.5350 N.ar  157  HIS157     -0.2268
     43  CD2      124.9240   41.9060   24.7360 C.ar  157  HIS157      0.1154
     44  CE1      123.0640   42.9910   24.3030 C.ar  157  HIS157      0.1986
     45  NE2      124.2240   42.6110   23.7910 N.ar  157  HIS157     -0.2212
     46  N        132.0680   34.5390   21.4160 N.3   191  GLU191     -0.1245
     47  CA       132.2960   35.9240   21.1100 C.3   191  GLU191      0.1567
     48  C        133.2580   36.2450   22.2440 C.2   191  GLU191      0.2260
     49  O        132.8660   36.3150   23.4160 O.2   191  GLU191     -0.2867
     50  CB       131.0100   36.7300   21.2290 C.3   191  GLU191      0.0388
     51  CG       131.1850   38.2090   20.9040 C.3   191  GLU191      0.1160
     52  CD       129.8880   38.9430   20.9780 C.2   191  GLU191      0.3649
     53  OE1      128.9380   38.4760   20.3170 O.co2 191  GLU191     -0.2457
     54  OE2      129.7610   39.8970   21.7890 O.co2 191  GLU191     -0.2457
     55  N        128.6280   35.9110    9.4650 N.3   279  SER279     -0.1217
     56  CA       127.4300   36.2400   10.2160 C.3   279  SER279      0.1889
     57  C        126.7840   37.4720    9.6310 C.2   279  SER279      0.2288
     58  O        127.4750   38.3530    9.1400 O.2   279  SER279     -0.2866
     59  CB       127.7700   36.5030   11.6760 C.3   279  SER279      0.2089
     60  OG       128.0450   35.2850   12.3580 O.3   279  SER279     -0.2183
     61  N        125.3820   32.3740    9.4310 N.3   306  ARG306     -0.1245
     62  CA       124.6760   32.5620   10.6600 C.3   306  ARG306      0.1563
     63  C        124.0090   33.9200   10.6160 C.2   306  ARG306      0.2260
     64  O        124.5990   34.8960   10.1790 O.2   306  ARG306     -0.2867
     65  CB       125.6540   32.4900   11.8080 C.3   306  ARG306      0.0307
     66  CG       125.1250   33.1080   13.0380 C.3   306  ARG306      0.0489
     67  CD       126.1180   32.9000   14.1230 C.3   306  ARG306      0.2205
     68  NE       125.4390   32.8830   15.4030 N.pl3 306  ARG306     -0.0865
     69  CZ       125.2250   33.9550   16.1610 C.cat 306  ARG306      0.5346
     70  NH1      125.6600   35.1590   15.7660 N.pl3 306  ARG306      0.1354
     71  NH2      124.5800   33.8030   17.3240 N.pl3 306  ARG306      0.1354
     72  N        121.5220   36.7370   12.8760 N.3   308  TYR308     -0.1228
     73  CA       121.1380   37.0660   14.2400 C.3   308  TYR308      0.1721
     74  C        120.1990   38.2650   14.2340 C.2   308  TYR308      0.2437
     75  O        120.1120   39.0090   13.2600 O.2   308  TYR308     -0.2733
     76  CB       122.3790   37.3140   15.0990 C.3   308  TYR308      0.0547
     77  CG       123.3010   38.3880   14.5470 C.ar  308  TYR308     -0.0200
     78  CD1      123.1040   39.7250   14.8700 C.ar  308  TYR308     -0.0009
     79  CD2      124.3460   38.0670   13.6980 C.ar  308  TYR308     -0.0009
     80  CE1      123.9120   40.7110   14.3640 C.ar  308  TYR308      0.0417
     81  CE2      125.1690   39.0590   13.1850 C.ar  308  TYR308      0.0417
     82  CZ       124.9420   40.3800   13.5300 C.ar  308  TYR308      0.1957
     83  OH       125.7370   41.3800   13.0270 O.3   308  TYR308     -0.2866
     84  N        119.4550   38.4150   15.3110 N.am  309  PRO309     -0.2729
     85  CA       118.4450   39.4760   15.4510 C.3   309  PRO309      0.1401
     86  C        118.9600   40.9180   15.4030 C.2   309  PRO309      0.2269
     87  O        120.0210   41.2430   15.9470 O.2   309  PRO309     -0.2865
     88  CB       117.8230   39.2010   16.8280 C.3   309  PRO309      0.0296
     89  CG       118.2690   37.8390   17.2040 C.3   309  PRO309      0.0237
     90  CD       119.5530   37.5660   16.5020 C.3   309  PRO309      0.0939
@<TRIPOS>BOND
     1    58    57    2
     2    61    62    1
     3    55    56    1
     4    57    56    1
     5    64    63    2
     6    56    59    1
     7    63    62    1
     8    62    65    1
     9    59    60    1
    10    65    66    1
    11    72    73    1
    12    83    82    1
    13    66    67    1
    14    81    82   ar
    15    81    79   ar
    16    75    74    2
    17    82    80   ar
    18    79    77   ar
    19    67    68    1
    20    74    73    1
    21    74    84   am
    22    73    76    1
    23    80    78   ar
    24    77    78   ar
    25    77    76    1
    26    84    85    1
    27    84    90    1
    28    68    69    2
    29    86    85    1
    30    86    87    2
    31    85    88    1
    32    70    69    1
    33    69    71    1
    34    90    89    1
    35    88    89    1
    36     8    10   ar
    37     8     6   ar
    38     5     6    1
    39     5     2    1
    40    27    25   ar
    41    10     9   ar
    42     6     7   ar
    43     1     2    1
    44    25    24    1
    45    25    26   ar
    46     2     3    1
    47     9     7   ar
    48    24    23    1
    49    53    52   ar
    50    51    52    1
    51    51    50    1
    52    52    54   ar
    53    47    50    1
    54    47    46    1
    55    47    48    1
    56     3    11   am
    57     3     4    2
    58    23    20    1
    59    11    12    1
    60    19    20    1
    61    20    21    1
    62    48    49    2
    63    17    16    2
    64    16    18   am
    65    16    15    1
    66    34    33   ar
    67    12    15    1
    68    12    13    1
    69    21    22    2
    70    45    44   ar
    71    45    43   ar
    72    35    33   ar
    73    33    32    1
    74    13    14    2
    75    44    42   ar
    76    43    41   ar
    77    29    28    1
    78    29    32    1
    79    29    30    1
    80    42    41   ar
    81    41    40    1
    82    30    31    2
    83    40    37    1
    84    37    38    1
    85    37    36    1
    86    38    39    2
