@<TRIPOS>MOLECULE
tmp/1djxA00.pdb
 153 145 0 0 0
SMALL
GASTEIGER

@<TRIPOS>ATOM
      1  N        120.1050   33.2490   20.5660 N.3   112  HIS112     -0.1226
      2  CA       120.8350   34.4840   20.6800 C.3   112  HIS112      0.1752
      3  C        120.9310   34.8780   22.1350 C.2   112  HIS112      0.2596
      4  O        119.9110   34.8710   22.8450 O.2   112  HIS112     -0.2718
      5  CB       120.0740   35.5370   19.8850 C.3   112  HIS112      0.0759
      6  CG       120.4750   36.9300   20.1960 C.ar  112  HIS112      0.0818
      7  ND1      119.7120   37.7640   20.9840 N.ar  112  HIS112     -0.2268
      8  CD2      121.5770   37.6320   19.8580 C.ar  112  HIS112      0.1154
      9  CE1      120.3250   38.9250   21.1060 C.ar  112  HIS112      0.1986
     10  NE2      121.4480   38.8760   20.4150 N.ar  112  HIS112     -0.2212
     11  N        122.1590   35.2320   22.5670 N.am  113  ASN113     -0.1974
     12  CA       122.4780   35.6350   23.9720 C.3   113  ASN113      0.1688
     13  C        121.7670   34.7410   24.9290 C.2   113  ASN113      0.2292
     14  O        120.9450   35.1720   25.7700 O.2   113  ASN113     -0.2864
     15  CB       122.1050   37.0770   24.2390 C.3   113  ASN113      0.1181
     16  CG       123.0390   38.0300   23.5580 C.2   113  ASN113      0.2629
     17  OD1      123.9870   37.6130   22.9250 O.2   113  ASN113     -0.2716
     18  ND2      122.7140   39.2980   23.5880 N.am  113  ASN113     -0.0877
     19  N        117.1460   42.5040   27.2120 N.3   120  GLN120     -0.1245
     20  CA       118.5690   42.6380   26.9410 C.3   120  GLN120      0.1566
     21  C        119.3340   43.6670   27.7510 C.2   120  GLN120      0.2260
     22  O        120.5550   43.8100   27.5660 O.2   120  GLN120     -0.2867
     23  CB       118.7760   42.9980   25.4730 C.3   120  GLN120      0.0367
     24  CG       118.0960   42.0950   24.5180 C.3   120  GLN120      0.0905
     25  CD       118.8190   40.7880   24.3490 C.2   120  GLN120      0.2608
     26  OE1      119.9930   40.7440   23.9740 O.2   120  GLN120     -0.2717
     27  NE2      118.1260   39.7080   24.6400 N.am  120  GLN120     -0.0878
     28  N        125.0710   30.8610   22.5720 N.3   142  GLU142     -0.1245
     29  CA       125.8670   32.0660   22.6040 C.3   142  GLU142      0.1567
     30  C        126.4070   32.4000   23.9640 C.2   142  GLU142      0.2260
     31  O        125.6740   32.4290   24.9440 O.2   142  GLU142     -0.2867
     32  CB       125.0780   33.2520   22.0450 C.3   142  GLU142      0.0388
     33  CG       125.8970   34.5110   21.9000 C.3   142  GLU142      0.1160
     34  CD       125.2360   35.5510   20.9930 C.2   142  GLU142      0.3649
     35  OE1      124.0510   35.3870   20.5850 O.co2 142  GLU142     -0.2457
     36  OE2      125.9340   36.5450   20.6960 O.co2 142  GLU142     -0.2457
     37  N        125.3990   40.5470   29.3600 N.3   157  HIS157     -0.1241
     38  CA       125.2740   41.3500   28.1360 C.3   157  HIS157      0.1621
     39  C        126.0850   42.6220   28.2390 C.2   157  HIS157      0.2264
     40  O        125.7220   43.5390   28.9820 O.2   157  HIS157     -0.2867
     41  CB       123.8010   41.6600   27.8210 C.3   157  HIS157      0.0745
     42  CG       123.5890   42.1950   26.4430 C.ar  157  HIS157      0.0817
     43  ND1      122.5220   43.0080   26.1190 N.ar  157  HIS157     -0.2268
     44  CD2      124.3340   42.0700   25.3180 C.ar  157  HIS157      0.1154
     45  CE1      122.6160   43.3470   24.8460 C.ar  157  HIS157      0.1986
     46  NE2      123.6960   42.7780   24.3330 N.ar  157  HIS157     -0.2212
     47  N        128.9320   29.8170   20.3530 N.3   189  SER189     -0.1202
     48  CA       129.3490   31.0360   19.7010 C.3   189  SER189      0.2020
     49  C        129.8880   31.9300   20.8100 C.2   189  SER189      0.2619
     50  O        129.1560   32.3640   21.7250 O.2   189  SER189     -0.2717
     51  CB       128.1790   31.6860   18.9670 C.3   189  SER189      0.2103
     52  OG       128.4600   33.0520   18.6730 O.3   189  SER189     -0.2182
     53  N        131.2020   32.1350   20.7760 N.am  190  LEU190     -0.1965
     54  CA       131.8710   32.9340   21.7960 C.3   190  LEU190      0.1728
     55  C        132.0450   34.3410   21.3150 C.2   190  LEU190      0.2616
     56  O        132.6130   34.5780   20.2580 O.2   190  LEU190     -0.2715
     57  CB       133.2620   32.3830   22.0730 C.3   190  LEU190      0.0311
     58  CG       133.3500   30.8910   22.3770 C.3   190  LEU190      0.0022
     59  CD1      134.7950   30.4620   22.5550 C.3   190  LEU190      0.0001
     60  CD2      132.5660   30.6200   23.6300 C.3   190  LEU190      0.0001
     61  N        131.5270   35.2710   22.0870 N.am  191  GLU191     -0.1977
     62  CA       131.6780   36.6700   21.7940 C.3   191  GLU191      0.1602
     63  C        132.6410   37.0160   22.9200 C.2   191  GLU191      0.2287
     64  O        132.2770   37.0460   24.0940 O.2   191  GLU191     -0.2864
     65  CB       130.3560   37.4050   21.9220 C.3   191  GLU191      0.0415
     66  CG       130.4270   38.8430   21.4470 C.3   191  GLU191      0.1163
     67  CD       129.1710   39.6230   21.7840 C.2   191  GLU191      0.3649
     68  OE1      128.0780   39.1570   21.4040 O.co2 191  GLU191     -0.2457
     69  OE2      129.2620   40.6620   22.4730 O.co2 191  GLU191     -0.2457
     70  N        135.1990   39.1630   25.0810 N.3   193  HIS193     -0.1241
     71  CA       135.5910   40.4850   25.5240 C.3   193  HIS193      0.1621
     72  C        136.5650   40.3120   26.6730 C.2   193  HIS193      0.2264
     73  O        136.7570   41.2080   27.5130 O.2   193  HIS193     -0.2867
     74  CB       134.3710   41.2370   26.0100 C.3   193  HIS193      0.0745
     75  CG       133.3960   41.5040   24.9290 C.ar  193  HIS193      0.0817
     76  ND1      133.5050   42.6030   24.1160 N.ar  193  HIS193     -0.2268
     77  CD2      132.3650   40.7720   24.4480 C.ar  193  HIS193      0.1154
     78  CE1      132.5510   42.5660   23.2050 C.ar  193  HIS193      0.1986
     79  NE2      131.8470   41.4630   23.3830 N.ar  193  HIS193     -0.2212
     80  N        133.0150   28.4050   18.0520 N.3   239  LYS239     -0.1245
     81  CA       132.9310   29.4000   17.0010 C.3   239  LYS239      0.1561
     82  C        133.4320   30.6430   17.6790 C.2   239  LYS239      0.2260
     83  O        133.0250   30.9650   18.8040 O.2   239  LYS239     -0.2867
     84  CB       131.4860   29.6650   16.5740 C.3   239  LYS239      0.0271
     85  CG       131.3580   30.8500   15.6470 C.3   239  LYS239      0.0035
     86  CD       129.9850   31.4570   15.6990 C.3   239  LYS239      0.0206
     87  CE       130.0090   32.9150   15.2230 C.3   239  LYS239      0.1093
     88  NZ       130.0030   33.8730   16.3760 N.3   239  LYS239     -0.1314
     89  N        136.5260   34.2270   17.0370 N.3   241  LYS241     -0.1245
     90  CA       137.5900   34.8300   16.2610 C.3   241  LYS241      0.1561
     91  C        138.8330   33.9680   16.3750 C.2   241  LYS241      0.2260
     92  O        139.1590   33.4560   17.4540 O.2   241  LYS241     -0.2867
     93  CB       137.8450   36.2650   16.7250 C.3   241  LYS241      0.0271
     94  CG       136.5440   37.1010   16.8520 C.3   241  LYS241      0.0035
     95  CD       136.6440   38.5400   16.2660 C.3   241  LYS241      0.0206
     96  CE       135.3090   39.0270   15.6150 C.3   241  LYS241      0.1093
     97  NZ       134.9050   40.4230   16.0320 N.3   241  LYS241     -0.1314
     98  N        134.9660   32.9430   13.1370 N.3   258  SER258     -0.1217
     99  CA       134.1080   34.1110   13.0130 C.3   258  SER258      0.1889
    100  C        134.7800   35.0750   12.0510 C.2   258  SER258      0.2288
    101  O        135.9700   35.3860   12.1660 O.2   258  SER258     -0.2866
    102  CB       133.8820   34.7660   14.3800 C.3   258  SER258      0.2089
    103  OG       133.0420   35.9080   14.2740 O.3   258  SER258     -0.2183
    104  N        134.1610   38.6080    9.1640 N.3   260  HIS260     -0.1241
    105  CA       133.3320   39.7510    8.7510 C.3   260  HIS260      0.1621
    106  C        132.8760   39.4760    7.3570 C.2   260  HIS260      0.2264
    107  O        133.6550   38.9790    6.5290 O.2   260  HIS260     -0.2867
    108  CB       134.1200   41.0700    8.7230 C.3   260  HIS260      0.0745
    109  CG       134.4100   41.6190   10.0790 C.ar  260  HIS260      0.0817
    110  ND1      133.4650   41.6650   11.0870 N.ar  260  HIS260     -0.2268
    111  CD2      135.5610   42.0910   10.6180 C.ar  260  HIS260      0.1154
    112  CE1      134.0220   42.1560   12.1840 C.ar  260  HIS260      0.1986
    113  NE2      135.2920   42.4240   11.9250 N.ar  260  HIS260     -0.2212
    114  N        128.4800   36.6340   10.3980 N.3   279  SER279     -0.1217
    115  CA       127.2640   36.8700   11.1550 C.3   279  SER279      0.1889
    116  C        126.6120   38.1100   10.6020 C.2   279  SER279      0.2288
    117  O        127.3090   39.0390   10.2590 O.2   279  SER279     -0.2866
    118  CB       127.6090   37.1160   12.6300 C.3   279  SER279      0.2089
    119  OG       128.2530   35.9730   13.1740 O.3   279  SER279     -0.2183
    120  N        125.3440   33.1310   10.2400 N.3   306  ARG306     -0.1245
    121  CA       124.5850   33.3000   11.4500 C.3   306  ARG306      0.1563
    122  C        123.8730   34.6140   11.3560 C.2   306  ARG306      0.2260
    123  O        124.4630   35.5990   10.9570 O.2   306  ARG306     -0.2867
    124  CB       125.5370   33.3750   12.6310 C.3   306  ARG306      0.0307
    125  CG       124.8670   33.7210   13.9350 C.3   306  ARG306      0.0489
    126  CD       125.7730   33.3110   15.0790 C.3   306  ARG306      0.2205
    127  NE       125.0530   33.2990   16.3540 N.pl3 306  ARG306     -0.0865
    128  CZ       124.8560   34.3760   17.0990 C.cat 306  ARG306      0.5346
    129  NH1      125.3580   35.5330   16.6930 N.pl3 306  ARG306      0.1354
    130  NH2      124.1820   34.2990   18.2550 N.pl3 306  ARG306      0.1354
    131  N        121.3630   37.2730   13.6420 N.3   308  TYR308     -0.1228
    132  CA       120.9060   37.5340   14.9910 C.3   308  TYR308      0.1721
    133  C        119.9960   38.7300   14.9860 C.2   308  TYR308      0.2437
    134  O        119.9540   39.4830   14.0330 O.2   308  TYR308     -0.2733
    135  CB       122.0580   37.7280   15.9440 C.3   308  TYR308      0.0547
    136  CG       122.9910   38.8210   15.5090 C.ar  308  TYR308     -0.0200
    137  CD1      124.0530   38.5480   14.6570 C.ar  308  TYR308     -0.0009
    138  CD2      122.7970   40.1360   15.9320 C.ar  308  TYR308     -0.0009
    139  CE1      124.9070   39.5390   14.2530 C.ar  308  TYR308      0.0417
    140  CE2      123.6420   41.1360   15.5320 C.ar  308  TYR308      0.0417
    141  CZ       124.6970   40.8360   14.6860 C.ar  308  TYR308      0.1957
    142  OH       125.5560   41.8400   14.2820 O.3   308  TYR308     -0.2866
    143  N        119.2210   38.8710   16.0420 N.am  309  PRO309     -0.2729
    144  CA       118.2120   39.9240   16.1370 C.3   309  PRO309      0.1401
    145  C        118.7520   41.3400   16.0480 C.2   309  PRO309      0.2269
    146  O        119.8580   41.6130   16.5030 O.2   309  PRO309     -0.2865
    147  CB       117.6150   39.7030   17.5380 C.3   309  PRO309      0.0296
    148  CG       117.9510   38.2910   17.8840 C.3   309  PRO309      0.0237
    149  CD       119.3210   38.1050   17.2950 C.3   309  PRO309      0.0939
    150  N        119.3990   45.2030   16.9070 N.3   311  GLY311     -0.1225
    151  CA       119.7510   45.8790   18.1530 C.3   311  GLY311      0.1811
    152  C        118.5970   46.5240   18.8460 C.2   311  GLY311      0.2280
    153  O        118.6080   46.6560   20.0540 O.2   311  GLY311     -0.2866
@<TRIPOS>BOND
     1   107   106    2
     2   106   105    1
     3   108   105    1
     4   108   109    1
     5   105   104    1
     6   109   111   ar
     7   109   110   ar
     8   120   121    1
     9   117   116    2
    10   114   115    1
    11   116   115    1
    12   111   113   ar
    13   123   122    2
    14   110   112   ar
    15   115   118    1
    16   122   121    1
    17   121   124    1
    18   113   112   ar
    19   100   101    2
    20   100    99    1
    21   118   119    1
    22   124   125    1
    23    99    98    1
    24    99   102    1
    25   131   132    1
    26   125   126    1
    27   134   133    2
    28   139   137   ar
    29   139   141   ar
    30   103   102    1
    31   142   141    1
    32   137   136   ar
    33   141   140   ar
    34   133   132    1
    35   133   143   am
    36   132   135    1
    37   126   127    1
    38    87    86    1
    39    87    88    1
    40   136   138   ar
    41   136   135    1
    42   140   138   ar
    43    96    97    1
    44    96    95    1
    45    85    86    1
    46    85    84    1
    47   143   144    1
    48   143   149    1
    49   145   144    1
    50   145   146    2
    51   144   147    1
    52    90    91    1
    53    90    93    1
    54    90    89    1
    55    95    94    1
    56   127   128    2
    57    91    92    2
    58    84    81    1
    59   129   128    1
    60    93    94    1
    61   150   151    1
    62    81    82    1
    63    81    80    1
    64   128   130    1
    65   149   148    1
    66   147   148    1
    67    82    83    2
    68   151   152    1
    69    52    51    1
    70   152   153    2
    71    51    48    1
    72    48    47    1
    73    48    49    1
    74     8     6   ar
    75     8    10   ar
    76     5     6    1
    77     5     2    1
    78     6     7   ar
    79    56    55    2
    80    10     9   ar
    81     1     2    1
    82    35    34   ar
    83     2     3    1
    84    36    34   ar
    85    53    49   am
    86    53    54    1
    87    49    50    2
    88     7     9   ar
    89    34    33    1
    90    55    54    1
    91    55    61   am
    92    68    67   ar
    93    66    67    1
    94    66    65    1
    95    67    69   ar
    96    62    65    1
    97    62    61    1
    98    62    63    1
    99    54    57    1
   100    33    32    1
   101    32    29    1
   102    57    58    1
   103     3    11   am
   104     3     4    2
   105    58    59    1
   106    58    60    1
   107    11    12    1
   108    28    29    1
   109    29    30    1
   110    63    64    2
   111    17    16    2
   112    78    79   ar
   113    78    76   ar
   114    79    77   ar
   115    16    18   am
   116    16    15    1
   117    30    31    2
   118    12    15    1
   119    12    13    1
   120    26    25    2
   121    76    75   ar
   122    46    45   ar
   123    46    44   ar
   124    25    24    1
   125    25    27   am
   126    77    75   ar
   127    24    23    1
   128    45    43   ar
   129    13    14    2
   130    75    74    1
   131    70    71    1
   132    44    42   ar
   133    23    20    1
   134    71    74    1
   135    71    72    1
   136    43    42   ar
   137    42    41    1
   138    72    73    2
   139    20    19    1
   140    20    21    1
   141    22    21    2
   142    41    38    1
   143    38    39    1
   144    38    37    1
   145    39    40    2
