@<TRIPOS>MOLECULE
tmp/1djzB00.pdb
 138 131 0 0 0
SMALL
GASTEIGER

@<TRIPOS>ATOM
      1  N         75.5060   33.8040  -25.1340 N.3   154  HIS154     -0.1226
      2  CA        76.0930   35.0290  -24.5740 C.3   154  HIS154      0.1752
      3  C         75.2000   35.7040  -23.5670 C.2   154  HIS154      0.2596
      4  O         74.0320   35.9260  -23.8670 O.2   154  HIS154     -0.2718
      5  CB        76.3920   35.9630  -25.6460 C.3   154  HIS154      0.0759
      6  CG        76.6650   37.3480  -25.1770 C.ar  154  HIS154      0.0818
      7  ND1       75.7300   38.3550  -25.2450 N.ar  154  HIS154     -0.2268
      8  CD2       77.8100   37.9340  -24.7530 C.ar  154  HIS154      0.1154
      9  CE1       76.2710   39.4910  -24.8350 C.ar  154  HIS154      0.1986
     10  NE2       77.5380   39.2690  -24.5450 N.ar  154  HIS154     -0.2212
     11  N         75.7720   36.0390  -22.4010 N.am  155  ASN155     -0.1974
     12  CA        75.0550   36.6350  -21.2520 C.3   155  ASN155      0.1688
     13  C         73.7690   35.8720  -21.1050 C.2   155  ASN155      0.2292
     14  O         72.6700   36.4230  -21.1180 O.2   155  ASN155     -0.2864
     15  CB        74.7270   38.0950  -21.4680 C.3   155  ASN155      0.1181
     16  CG        75.8720   38.9980  -21.1410 C.2   155  ASN155      0.2629
     17  OD1       75.8710   39.6670  -20.1330 O.2   155  ASN155     -0.2716
     18  ND2       76.7480   39.1550  -22.0720 N.am  155  ASN155     -0.0877
     19  N         77.2060   31.5670  -19.8490 N.3   184  GLU184     -0.1245
     20  CA        77.8000   32.7560  -19.1880 C.3   184  GLU184      0.1567
     21  C         77.1510   33.1180  -17.8650 C.2   184  GLU184      0.2260
     22  O         75.9440   33.3440  -17.7920 O.2   184  GLU184     -0.2867
     23  CB        77.6590   33.9860  -20.0510 C.3   184  GLU184      0.0388
     24  CG        78.7260   34.1430  -21.0620 C.3   184  GLU184      0.1160
     25  CD        78.8020   35.5610  -21.6030 C.2   184  GLU184      0.3649
     26  OE1       78.9020   36.5280  -20.7940 O.co2 184  GLU184     -0.2457
     27  OE2       78.7800   35.6930  -22.8470 O.co2 184  GLU184     -0.2457
     28  N         77.6000   36.0940  -15.1000 N.3   186  ASP186     -0.1239
     29  CA        78.1640   37.4140  -14.7300 C.3   186  ASP186      0.1674
     30  C         77.8500   37.5770  -13.2730 C.2   186  ASP186      0.2266
     31  O         76.7310   37.8890  -12.8970 O.2   186  ASP186     -0.2867
     32  CB        77.5160   38.5420  -15.5190 C.3   186  ASP186      0.1410
     33  CG        78.0240   38.6170  -16.9390 C.2   186  ASP186      0.3668
     34  OD1       78.9570   37.8850  -17.2550 O.co2 186  ASP186     -0.2456
     35  OD2       77.5190   39.4090  -17.7380 O.co2 186  ASP186     -0.2456
     36  N         73.3880   41.8180  -15.4670 N.3   199  HIS199     -0.1241
     37  CA        74.2740   42.5350  -16.3840 C.3   199  HIS199      0.1621
     38  C         74.8610   43.7330  -15.6850 C.2   199  HIS199      0.2264
     39  O         74.1770   44.6960  -15.3320 O.2   199  HIS199     -0.2867
     40  CB        73.5380   42.9690  -17.6520 C.3   199  HIS199      0.0745
     41  CG        74.4580   43.3750  -18.7690 C.ar  199  HIS199      0.0817
     42  ND1       74.0520   44.1640  -19.8260 N.ar  199  HIS199     -0.2268
     43  CD2       75.7700   43.1180  -18.9770 C.ar  199  HIS199      0.1154
     44  CE1       75.0770   44.3830  -20.6280 C.ar  199  HIS199      0.1986
     45  NE2       76.1320   43.7550  -20.1360 N.ar  199  HIS199     -0.2212
     46  N         81.3310   30.0560  -18.1230 N.3   231  SER231     -0.1202
     47  CA        82.1720   31.2050  -18.2490 C.3   231  SER231      0.2020
     48  C         81.7970   32.0810  -17.1120 C.2   231  SER231      0.2619
     49  O         80.7360   32.6770  -17.1490 O.2   231  SER231     -0.2717
     50  CB        81.8500   31.9170  -19.5340 C.3   231  SER231      0.2103
     51  OG        82.9910   32.5040  -20.1200 O.3   231  SER231     -0.2182
     52  N         82.6380   32.1060  -16.0750 N.am  232  LEU232     -0.1965
     53  CA        82.4050   32.9600  -14.9450 C.3   232  LEU232      0.1728
     54  C         83.0520   34.3150  -15.2090 C.2   232  LEU232      0.2616
     55  O         84.2180   34.3860  -15.6790 O.2   232  LEU232     -0.2715
     56  CB        83.0170   32.3750  -13.7240 C.3   232  LEU232      0.0311
     57  CG        82.3780   31.0640  -13.4560 C.3   232  LEU232      0.0022
     58  CD1       83.0740   30.4840  -12.2580 C.3   232  LEU232      0.0001
     59  CD2       80.9210   31.2540  -13.2180 C.3   232  LEU232      0.0001
     60  N         82.2670   35.3800  -14.9500 N.am  233  GLU233     -0.1977
     61  CA        82.7170   36.7850  -15.0310 C.3   233  GLU233      0.1602
     62  C         82.5150   37.2410  -13.6080 C.2   233  GLU233      0.2287
     63  O         81.3760   37.5070  -13.1540 O.2   233  GLU233     -0.2864
     64  CB        81.8890   37.6260  -15.9850 C.3   233  GLU233      0.0415
     65  CG        82.6650   38.7840  -16.6420 C.3   233  GLU233      0.1163
     66  CD        81.7630   39.7400  -17.4260 C.2   233  GLU233      0.3649
     67  OE1       81.3870   39.3890  -18.5600 O.co2 233  GLU233     -0.2457
     68  OE2       81.3640   40.7940  -16.8810 O.co2 233  GLU233     -0.2457
     69  N         85.4580   28.3000  -16.6430 N.3   281  LYS281     -0.1245
     70  CA        86.2790   29.2030  -17.4090 C.3   281  LYS281      0.1561
     71  C         86.3440   30.4870  -16.6020 C.2   281  LYS281      0.2260
     72  O         85.3130   30.9780  -16.1370 O.2   281  LYS281     -0.2867
     73  CB        85.6410   29.5190  -18.7320 C.3   281  LYS281      0.0271
     74  CG        86.5850   30.2920  -19.6370 C.3   281  LYS281      0.0035
     75  CD        85.8550   31.3050  -20.4810 C.3   281  LYS281      0.0206
     76  CE        86.6680   32.5330  -20.8250 C.3   281  LYS281      0.1093
     77  NZ        85.6440   33.6180  -20.8490 N.3   281  LYS281     -0.1314
     78  N         89.4310   33.6130  -14.6710 N.3   283  LYS283     -0.1245
     79  CA        90.7660   34.1150  -14.4160 C.3   283  LYS283      0.1561
     80  C         91.3480   33.1670  -13.4350 C.2   283  LYS283      0.2260
     81  O         90.6450   32.6130  -12.6080 O.2   283  LYS283     -0.2867
     82  CB        90.7180   35.5150  -13.7920 C.3   283  LYS283      0.0271
     83  CG        89.7220   36.4700  -14.4440 C.3   283  LYS283      0.0035
     84  CD        90.3860   37.5770  -15.3060 C.3   283  LYS283      0.0206
     85  CE        89.4530   38.0770  -16.4580 C.3   283  LYS283      0.1093
     86  NZ        89.6090   39.5330  -16.8270 N.3   283  LYS283     -0.1314
     87  N         90.9630   32.3860  -18.5110 N.3   306  SER306     -0.1217
     88  CA        90.7290   33.5950  -19.3010 C.3   306  SER306      0.1889
     89  C         92.0480   34.3260  -19.4530 C.2   306  SER306      0.2288
     90  O         92.8160   34.4560  -18.5240 O.2   306  SER306     -0.2866
     91  CB        89.7630   34.5180  -18.6130 C.3   306  SER306      0.2089
     92  OG        88.7100   33.7910  -18.0520 O.3   306  SER306     -0.2183
     93  N         94.1690   37.6020  -21.7720 N.3   308  HIS308     -0.1241
     94  CA        94.0230   38.6900  -22.7200 C.3   308  HIS308      0.1621
     95  C         94.7030   38.2310  -23.9870 C.2   308  HIS308      0.2264
     96  O         95.7020   37.5420  -23.9160 O.2   308  HIS308     -0.2867
     97  CB        94.6650   39.9790  -22.1990 C.3   308  HIS308      0.0745
     98  CG        93.9170   40.6010  -21.0570 C.ar  308  HIS308      0.0817
     99  ND1       92.5500   40.8120  -21.0790 N.ar  308  HIS308     -0.2268
    100  CD2       94.3430   41.0360  -19.8470 C.ar  308  HIS308      0.1154
    101  CE1       92.1710   41.3610  -19.9370 C.ar  308  HIS308      0.1986
    102  NE2       93.2400   41.5090  -19.1720 N.ar  308  HIS308     -0.2212
    103  N         89.0990   35.9590  -25.4630 N.3   327  SER327     -0.1217
    104  CA        87.8130   36.3230  -25.9990 C.3   327  SER327      0.1889
    105  C         88.0230   37.4890  -26.8960 C.2   327  SER327      0.2288
    106  O         88.9650   38.1970  -26.7430 O.2   327  SER327     -0.2866
    107  CB        86.8610   36.6950  -24.9110 C.3   327  SER327      0.2089
    108  OG        86.6210   35.5800  -24.0940 O.3   327  SER327     -0.2183
    109  N         86.9730   32.6740  -27.8790 N.3   354  ARG354     -0.1245
    110  CA        85.5880   32.9620  -27.6380 C.3   354  ARG354      0.1563
    111  C         85.2860   34.2870  -28.3100 C.2   354  ARG354      0.2260
    112  O         86.0620   35.2160  -28.2190 O.2   354  ARG354     -0.2867
    113  CB        85.3720   33.0920  -26.1610 C.3   354  ARG354      0.0307
    114  CG        84.1200   33.6960  -25.8430 C.3   354  ARG354      0.0489
    115  CD        83.6130   33.2530  -24.4860 C.3   354  ARG354      0.2205
    116  NE        82.5490   34.1660  -24.0450 N.pl3 354  ARG354     -0.0865
    117  CZ        82.7160   35.4830  -23.9270 C.cat 354  ARG354      0.5346
    118  NH1       83.9200   36.0170  -24.1430 N.pl3 354  ARG354      0.1354
    119  NH2       81.6890   36.2640  -23.5840 N.pl3 354  ARG354      0.1354
    120  N         82.2570   37.3220  -29.0130 N.3   356  TYR356     -0.1228
    121  CA        81.0100   37.7930  -28.4310 C.3   356  TYR356      0.1721
    122  C         80.5000   39.0150  -29.1230 C.2   356  TYR356      0.2437
    123  O         81.2550   39.7420  -29.7880 O.2   356  TYR356     -0.2733
    124  CB        81.1120   37.9760  -26.9320 C.3   356  TYR356      0.0547
    125  CG        82.1780   38.9510  -26.5810 C.ar  356  TYR356     -0.0200
    126  CD1       81.9000   40.2890  -26.5380 C.ar  356  TYR356     -0.0009
    127  CD2       83.4960   38.5490  -26.4210 C.ar  356  TYR356     -0.0009
    128  CE1       82.8670   41.1750  -26.3210 C.ar  356  TYR356      0.0417
    129  CE2       84.4710   39.4520  -26.1970 C.ar  356  TYR356      0.0417
    130  CZ        84.1450   40.7610  -26.1340 C.ar  356  TYR356      0.1957
    131  OH        85.0860   41.6980  -25.8480 O.3   356  TYR356     -0.2866
    132  N         79.1870   39.1780  -29.0500 N.am  357  PRO357     -0.2729
    133  CA        78.5260   40.2550  -29.7490 C.3   357  PRO357      0.1401
    134  C         79.0310   41.6420  -29.4340 C.2   357  PRO357      0.2269
    135  O         79.3780   41.9670  -28.3110 O.2   357  PRO357     -0.2865
    136  CB        77.0550   40.0780  -29.3950 C.3   357  PRO357      0.0296
    137  CG        77.0130   39.2390  -28.1740 C.3   357  PRO357      0.0237
    138  CD        78.3830   38.6590  -27.9270 C.3   357  PRO357      0.0939
@<TRIPOS>BOND
     1   123   122    2
     2   133   134    1
     3   133   136    1
     4   133   132    1
     5   134   135    2
     6   136   137    1
     7   122   132   am
     8   122   121    1
     9   132   138    1
    10   120   121    1
    11   121   124    1
    12   111   112    2
    13   111   110    1
    14   137   138    1
    15   109   110    1
    16   110   113    1
    17   124   125    1
    18   105   106    2
    19   105   104    1
    20   125   126   ar
    21   125   127   ar
    22   126   128   ar
    23   127   129   ar
    24   128   130   ar
    25   129   130   ar
    26   113   114    1
    27   130   131    1
    28   104   103    1
    29   104   107    1
    30   114   115    1
    31     5     6    1
    32     5     2    1
    33     7     6   ar
    34     7     9   ar
    35     6     8   ar
    36     1     2    1
    37   107   108    1
    38     9    10   ar
    39     8    10   ar
    40     2     3    1
    41   115   116    1
    42   118   117    1
    43   116   117    2
    44    95    96    2
    45    95    94    1
    46   117   119    1
    47     4     3    2
    48     3    11   am
    49    27    25   ar
    50    94    97    1
    51    94    93    1
    52    11    12    1
    53    97    98    1
    54    18    16   am
    55    25    24    1
    56    25    26   ar
    57    15    12    1
    58    15    16    1
    59    12    13    1
    60    16    17    2
    61    14    13    2
    62    99    98   ar
    63    99   101   ar
    64    24    23    1
    65    98   100   ar
    66    77    76    1
    67    76    75    1
    68    44    45   ar
    69    44    42   ar
    70    75    74    1
    71    45    43   ar
    72    51    50    1
    73    23    20    1
    74   101   102   ar
    75    19    20    1
    76   100   102   ar
    77    42    41   ar
    78    74    73    1
    79    50    47    1
    80    89    88    1
    81    89    90    2
    82    88    91    1
    83    88    87    1
    84    20    21    1
    85    43    41   ar
    86    41    40    1
    87    73    70    1
    88    91    92    1
    89    67    66   ar
    90    47    46    1
    91    47    48    1
    92    21    22    2
    93    35    33   ar
    94    40    37    1
    95    66    68   ar
    96    66    65    1
    97    70    69    1
    98    70    71    1
    99    34    33   ar
   100    49    48    2
   101    48    52   am
   102    33    32    1
   103    86    85    1
   104    65    64    1
   105    71    72    2
   106    85    84    1
   107    37    38    1
   108    37    36    1
   109    52    53    1
   110    64    61    1
   111    38    39    2
   112    55    54    2
   113    32    29    1
   114    84    83    1
   115    54    60   am
   116    54    53    1
   117    28    29    1
   118    61    60    1
   119    61    62    1
   120    53    56    1
   121    29    30    1
   122    78    79    1
   123    83    82    1
   124    79    82    1
   125    79    80    1
   126    56    57    1
   127    62    63    2
   128    57    59    1
   129    57    58    1
   130    80    81    2
   131    30    31    2
