@<TRIPOS>MOLECULE
tmp/1dkdA00.pdb
 128 119 0 0 0
SMALL
GASTEIGER

@<TRIPOS>ATOM
      1  N         36.6780   65.6200   32.2030 N.3    40  ILE40      -0.1231
      2  CA        37.3040   65.7860   30.9010 C.3    40  ILE40       0.1692
      3  C         36.6930   66.8640   30.0070 C.2    40  ILE40       0.2591
      4  O         37.3900   67.4360   29.1650 O.2    40  ILE40      -0.2718
      5  CB        37.3380   64.4230   30.1520 C.3    40  ILE40       0.0266
      6  CG1       38.7870   64.0570   29.8170 C.3    40  ILE40       0.0019
      7  CG2       36.4570   64.4600   28.9160 C.3    40  ILE40       0.0020
      8  CD1       39.5370   65.0910   29.0110 C.3    40  ILE40       0.0001
      9  N         35.4050   67.1450   30.1910 N.am   41  ARG41      -0.1980
     10  CA        34.7160   68.1580   29.3880 C.3    41  ARG41       0.1597
     11  C         35.5490   69.4190   29.1330 C.2    41  ARG41       0.2287
     12  O         35.7470   69.8240   27.9870 O.2    41  ARG41      -0.2864
     13  CB        33.4020   68.5650   30.0630 C.3    41  ARG41       0.0334
     14  CG        32.1640   67.8120   29.5940 C.3    41  ARG41       0.0492
     15  CD        32.3240   66.3060   29.7120 C.3    41  ARG41       0.2205
     16  NE        31.0390   65.6140   29.8060 N.pl3  41  ARG41      -0.0865
     17  CZ        30.0290   65.7590   28.9500 C.cat  41  ARG41       0.5346
     18  NH1       30.1340   66.5850   27.9140 N.pl3  41  ARG41       0.1354
     19  NH2       28.9100   65.0660   29.1280 N.pl3  41  ARG41       0.1354
     20  N         38.3000   68.8520   26.3640 N.3    44  LEU44      -0.1245
     21  CA        37.9910   68.5760   24.9610 C.3    44  LEU44       0.1561
     22  C         38.5720   69.5650   23.9400 C.2    44  LEU44       0.2260
     23  O         39.2240   69.1570   22.9790 O.2    44  LEU44      -0.2867
     24  CB        36.4720   68.4520   24.7860 C.3    44  LEU44       0.0270
     25  CG        35.8910   67.2970   25.6100 C.3    44  LEU44       0.0019
     26  CD1       34.3990   67.1810   25.3890 C.3    44  LEU44       0.0001
     27  CD2       36.5900   65.9930   25.2130 C.3    44  LEU44       0.0001
     28  N         42.3710   69.2220   23.6940 N.3    47  LEU47      -0.1231
     29  CA        42.6390   67.8740   23.2000 C.3    47  LEU47       0.1693
     30  C         42.3700   67.7850   21.7010 C.2    47  LEU47       0.2591
     31  O         43.1880   67.2470   20.9530 O.2    47  LEU47      -0.2718
     32  CB        41.7800   66.8330   23.9400 C.3    47  LEU47       0.0284
     33  CG        42.2040   66.4130   25.3560 C.3    47  LEU47       0.0019
     34  CD1       41.1370   65.5330   25.9900 C.3    47  LEU47       0.0001
     35  CD2       43.5210   65.6610   25.2930 C.3    47  LEU47       0.0001
     36  N         41.2240   68.3010   21.2620 N.am   48  GLU48      -0.1979
     37  CA        40.8840   68.2610   19.8400 C.3    48  GLU48       0.1602
     38  C         41.9160   69.0210   19.0170 C.2    48  GLU48       0.2287
     39  O         42.4280   68.5150   18.0150 O.2    48  GLU48      -0.2864
     40  CB        39.4910   68.8530   19.5880 C.3    48  GLU48       0.0415
     41  CG        39.2220   69.1530   18.1160 C.3    48  GLU48       0.1163
     42  CD        37.7550   69.4040   17.8000 C.2    48  GLU48       0.3649
     43  OE1       37.0680   70.0800   18.5990 O.co2  48  GLU48      -0.2457
     44  OE2       37.2900   68.9320   16.7380 O.co2  48  GLU48      -0.2457
     45  N         45.0630   67.0010   18.9020 N.3    51  ALA51      -0.1231
     46  CA        44.8800   65.7870   18.1120 C.3    51  ALA51       0.1694
     47  C         44.9080   66.1470   16.6270 C.2    51  ALA51       0.2591
     48  O         45.6060   65.5100   15.8360 O.2    51  ALA51      -0.2718
     49  CB        43.5400   65.1070   18.4640 C.3    51  ALA51       0.0304
     50  N         44.1430   67.1740   16.2600 N.am   52  LYS52      -0.1980
     51  CA        44.0780   67.6110   14.8730 C.3    52  LYS52       0.1596
     52  C         45.4600   68.0260   14.3860 C.2    52  LYS52       0.2287
     53  O         45.7970   67.8210   13.2280 O.2    52  LYS52      -0.2864
     54  CB        43.0960   68.7720   14.7350 C.3    52  LYS52       0.0298
     55  CG        41.6240   68.4010   14.8750 C.3    52  LYS52       0.0038
     56  CD        41.2040   67.4290   13.7770 C.3    52  LYS52       0.0206
     57  CE        39.7250   67.5640   13.4030 C.3    52  LYS52       0.1093
     58  NZ        38.7990   67.2670   14.5410 N.3    52  LYS52      -0.1314
     59  N         37.0860   60.0760   35.9540 N.3    67  GLU67      -0.1245
     60  CA        36.7520   59.8840   34.5530 C.3    67  GLU67       0.1567
     61  C         37.8200   60.5170   33.6740 C.2    67  GLU67       0.2260
     62  O         38.2120   59.9520   32.6520 O.2    67  GLU67      -0.2867
     63  CB        35.3940   60.5160   34.2400 C.3    67  GLU67       0.0388
     64  CG        35.3550   62.0190   34.4480 C.3    67  GLU67       0.1160
     65  CD        34.1530   62.6650   33.7880 C.2    67  GLU67       0.3649
     66  OE1       33.0100   62.3160   34.1600 O.co2  67  GLU67      -0.2457
     67  OE2       34.3530   63.5200   32.8950 O.co2  67  GLU67      -0.2457
     68  N         40.7530   58.2500   33.2090 N.3    70  ALA70      -0.1231
     69  CA        40.2850   57.0980   32.4430 C.3    70  ALA70       0.1694
     70  C         40.0620   57.3750   30.9520 C.2    70  ALA70       0.2593
     71  O         40.4060   56.5460   30.1130 O.2    70  ALA70      -0.2718
     72  CB        39.0010   56.5460   33.0650 C.3    70  ALA70       0.0304
     73  N         39.4800   58.5220   30.6090 N.am   71  THR71      -0.1939
     74  CA        39.2500   58.8070   29.1940 C.3    71  THR71       0.2028
     75  C         40.5680   59.0690   28.4590 C.2    71  THR71       0.2642
     76  O         40.7250   58.6870   27.2940 O.2    71  THR71      -0.2714
     77  CB        38.2840   60.0010   28.9930 C.3    71  THR71       0.1808
     78  OG1       38.8710   61.2030   29.5010 O.3    71  THR71      -0.2208
     79  CG2       36.9860   59.7430   29.7310 C.3    71  THR71       0.0379
     80  N         41.5230   59.6980   29.1360 N.am   72  LEU72      -0.1977
     81  CA        42.8130   59.9590   28.5040 C.3    72  LEU72       0.1596
     82  C         43.5080   58.6520   28.1480 C.2    72  LEU72       0.2287
     83  O         44.1070   58.5160   27.0740 O.2    72  LEU72      -0.2864
     84  CB        43.7170   60.7620   29.4300 C.3    72  LEU72       0.0297
     85  CG        43.2690   62.1830   29.7560 C.3    72  LEU72       0.0022
     86  CD1       44.2860   62.7960   30.7110 C.3    72  LEU72       0.0001
     87  CD2       43.1390   63.0120   28.4840 C.3    72  LEU72       0.0001
     88  N         42.0340   55.5550   27.7810 N.3    74  VAL74      -0.1231
     89  CA        41.2880   54.7980   26.7870 C.3    74  VAL74       0.1692
     90  C         41.4220   55.3730   25.3720 C.2    74  VAL74       0.2592
     91  O         41.4820   54.6270   24.4030 O.2    74  VAL74      -0.2718
     92  CB        39.7740   54.7240   27.1560 C.3    74  VAL74       0.0266
     93  CG1       38.9760   54.1510   25.9910 C.3    74  VAL74       0.0020
     94  CG2       39.5770   53.8400   28.3780 C.3    74  VAL74       0.0020
     95  N         41.4590   56.6970   25.2500 N.am   75  ASN75      -0.1974
     96  CA        41.5760   57.2920   23.9300 C.3    75  ASN75       0.1688
     97  C         43.0010   57.2860   23.3910 C.2    75  ASN75       0.2292
     98  O         43.2050   57.4660   22.1900 O.2    75  ASN75      -0.2864
     99  CB        40.9550   58.6910   23.9290 C.3    75  ASN75       0.1181
    100  CG        39.4390   58.6290   24.0060 C.2    75  ASN75       0.2629
    101  OD1       38.7820   58.2690   23.0350 O.2    75  ASN75      -0.2716
    102  ND2       38.8800   58.9460   25.1720 N.am   75  ASN75      -0.0877
    103  N         43.0690   53.8540   22.0340 N.3    78  ARG78      -0.1245
    104  CA        42.2970   53.8370   20.7820 C.3    78  ARG78       0.1563
    105  C         42.9610   54.6360   19.6510 C.2    78  ARG78       0.2260
    106  O         42.4590   54.6650   18.5320 O.2    78  ARG78      -0.2867
    107  CB        40.8790   54.3820   21.0190 C.3    78  ARG78       0.0307
    108  CG        39.9260   53.3870   21.6960 C.3    78  ARG78       0.0489
    109  CD        38.7280   54.0960   22.3540 C.3    78  ARG78       0.2205
    110  NE        38.1770   55.1710   21.5280 N.pl3  78  ARG78      -0.0865
    111  CZ        37.4210   54.9850   20.4560 C.cat  78  ARG78       0.5346
    112  NH1       37.1070   53.7600   20.0680 N.pl3  78  ARG78       0.1354
    113  NH2       36.9840   56.0250   19.7650 N.pl3  78  ARG78       0.1354
    114  N         43.1980   57.8880   19.2450 N.3    80  ILE80      -0.1231
    115  CA        42.5010   59.1290   18.9150 C.3    80  ILE80       0.1692
    116  C         43.4150   60.2710   19.3370 C.2    80  ILE80       0.2591
    117  O         43.5130   61.2990   18.6690 O.2    80  ILE80      -0.2718
    118  CB        41.1660   59.2290   19.6830 C.3    80  ILE80       0.0266
    119  CG1       40.3070   57.9920   19.3900 C.3    80  ILE80       0.0019
    120  CG2       40.4190   60.4960   19.2820 C.3    80  ILE80       0.0020
    121  CD1       39.9770   57.8190   17.9250 C.3    80  ILE80       0.0001
    122  N         44.0820   60.0790   20.4700 N.am   81  VAL81      -0.1980
    123  CA        45.0350   61.0630   20.9820 C.3    81  VAL81       0.1595
    124  C         46.2340   60.2780   21.4820 C.2    81  VAL81       0.2287
    125  O         46.2310   59.0530   21.4670 O.2    81  VAL81      -0.2864
    126  CB        44.4820   61.8730   22.1910 C.3    81  VAL81       0.0276
    127  CG1       43.3220   62.7600   21.7630 C.3    81  VAL81       0.0022
    128  CG2       44.0630   60.9150   23.3080 C.3    81  VAL81       0.0022
@<TRIPOS>BOND
     1    53    52    2
     2    57    56    1
     3    57    58    1
     4    56    55    1
     5    52    51    1
     6    54    51    1
     7    54    55    1
     8    51    50    1
     9    48    47    2
    10    50    47   am
    11    47    46    1
    12    44    42   ar
    13    42    41    1
    14    42    43   ar
    15   121   119    1
    16    39    38    2
    17    46    49    1
    18    46    45    1
    19    41    40    1
    20   106   105    2
    21   117   116    2
    22   115   114    1
    23   115   116    1
    24   115   118    1
    25    38    37    1
    26   120   118    1
    27   116   122   am
    28   119   118    1
    29    40    37    1
    30   105   104    1
    31   113   111    1
    32    37    36    1
    33   112   111    1
    34   111   110    2
    35   122   123    1
    36   104   107    1
    37   104   103    1
    38    31    30    2
    39   123   124    1
    40   123   126    1
    41   107   108    1
    42    36    30   am
    43   125   124    2
    44   110   109    1
    45   108   109    1
    46    30    29    1
    47   127   126    1
    48    98    97    2
    49   126   128    1
    50    23    22    2
    51   101   100    2
    52    29    28    1
    53    29    32    1
    54    97    96    1
    55    99    96    1
    56    99   100    1
    57    96    95    1
    58    32    33    1
    59    22    21    1
    60   100   102   am
    61    91    90    2
    62    24    21    1
    63    24    25    1
    64    21    20    1
    65    27    25    1
    66    95    90   am
    67    35    33    1
    68    33    34    1
    69    90    89    1
    70    26    25    1
    71    93    92    1
    72    89    92    1
    73    89    88    1
    74    83    82    2
    75    92    94    1
    76    76    75    2
    77    18    17    1
    78    12    11    2
    79    82    81    1
    80    75    80   am
    81    75    74    1
    82    87    85    1
    83    81    80    1
    84    81    84    1
    85     7     5    1
    86    17    19    1
    87    17    16    2
    88    77    74    1
    89    77    78    1
    90    77    79    1
    91     8     6    1
    92    11    10    1
    93     4     3    2
    94    74    73    1
    95    10    13    1
    96    10     9    1
    97    84    85    1
    98    14    15    1
    99    14    13    1
   100    15    16    1
   101    85    86    1
   102     6     5    1
   103     3     9   am
   104     3     2    1
   105    71    70    2
   106     5     2    1
   107    73    70   am
   108     2     1    1
   109    70    69    1
   110    69    72    1
   111    69    68    1
   112    62    61    2
   113    67    65   ar
   114    61    60    1
   115    65    66   ar
   116    65    64    1
   117    63    64    1
   118    63    60    1
   119    60    59    1
