@<TRIPOS>MOLECULE
tmp/1dkfA00.pdb
 184 173 0 0 0
SMALL
GASTEIGER

@<TRIPOS>ATOM
      1  N         -3.7550  110.8080   24.3430 N.3    28  ILE28      -0.1245
      2  CA        -3.6120  109.4160   23.9430 C.3    28  ILE28       0.1561
      3  C         -2.2260  109.1410   23.3820 C.2    28  ILE28       0.2260
      4  O         -1.6290  108.1110   23.6830 O.2    28  ILE28      -0.2867
      5  CB        -4.6750  109.0180   22.9020 C.3    28  ILE28       0.0252
      6  CG1       -5.9610  108.6230   23.6240 C.3    28  ILE28       0.0019
      7  CG2       -4.1960  107.8360   22.0680 C.3    28  ILE28       0.0019
      8  CD1       -7.0450  109.6290   23.4830 C.3    28  ILE28       0.0001
      9  N          0.1860  108.9500   26.2210 N.3    31  ALA31      -0.1231
     10  CA        -0.0670  107.7600   27.0300 C.3    31  ALA31       0.1694
     11  C          0.4680  106.5190   26.3010 C.2    31  ALA31       0.2591
     12  O          1.0990  105.6460   26.8990 O.2    31  ALA31      -0.2718
     13  CB        -1.5510  107.6170   27.2830 C.3    31  ALA31       0.0304
     14  N          0.2140  106.4620   24.9990 N.am   32  ALA32      -0.1980
     15  CA         0.6570  105.3600   24.1550 C.3    32  ALA32       0.1597
     16  C          2.1730  105.2910   24.1210 C.2    32  ALA32       0.2287
     17  O          2.7630  104.2280   24.2870 O.2    32  ALA32      -0.2864
     18  CB         0.1250  105.5540   22.7470 C.3    32  ALA32       0.0319
     19  N          3.7870  103.9960   27.3650 N.3    35  GLN35      -0.1245
     20  CA         3.6660  102.5580   27.5160 C.3    35  GLN35       0.1566
     21  C          4.5500  101.8500   26.4990 C.2    35  GLN35       0.2260
     22  O          5.1570  100.8240   26.7990 O.2    35  GLN35      -0.2867
     23  CB         2.2060  102.1260   27.3420 C.3    35  GLN35       0.0367
     24  CG         1.3040  102.4330   28.5450 C.3    35  GLN35       0.0905
     25  CD         1.8420  101.8940   29.8710 C.2    35  GLN35       0.2608
     26  OE1        2.7080  102.5080   30.5030 O.2    35  GLN35      -0.2717
     27  NE2        1.3210  100.7460   30.3010 N.am   35  GLN35      -0.0878
     28  N          1.4980   95.1520   19.9090 N.3    65  TRP65      -0.1227
     29  CA         1.6780   96.2870   20.8090 C.3    65  TRP65       0.1737
     30  C          0.3960   97.0930   20.9890 C.2    65  TRP65       0.2595
     31  O          0.0980   97.5530   22.0870 O.2    65  TRP65      -0.2718
     32  CB         2.7930   97.1980   20.2900 C.3    65  TRP65       0.0564
     33  CG         2.4310   97.9060   19.0330 C.ar   65  TRP65       0.0003
     34  CD1        2.6360   97.4710   17.7530 C.ar   65  TRP65       0.0946
     35  CD2        1.7240   99.1420   18.9310 C.ar   65  TRP65       0.0152
     36  NE1        2.0920   98.3600   16.8620 N.ar   65  TRP65      -0.2442
     37  CE2        1.5250   99.3960   17.5580 C.ar   65  TRP65       0.0810
     38  CE3        1.2330  100.0580   19.8710 C.ar   65  TRP65       0.0012
     39  CZ2        0.8540  100.5340   17.0960 C.ar   65  TRP65       0.0191
     40  CZ3        0.5660  101.1880   19.4150 C.ar   65  TRP65       0.0001
     41  CH2        0.3820  101.4160   18.0370 C.ar   65  TRP65       0.0015
     42  N         -0.3630   97.2590   19.9140 N.am   66  ASN66      -0.1974
     43  CA        -1.5990   98.0200   19.9800 C.3    66  ASN66       0.1688
     44  C         -2.6210   97.2970   20.8450 C.2    66  ASN66       0.2292
     45  O         -3.3290   97.9170   21.6390 O.2    66  ASN66      -0.2864
     46  CB        -2.1540   98.2630   18.5680 C.3    66  ASN66       0.1181
     47  CG        -2.5490   96.9760   17.8550 C.2    66  ASN66       0.2629
     48  OD1       -1.9140   95.9260   18.0230 O.2    66  ASN66      -0.2716
     49  ND2       -3.6080   97.0540   17.0490 N.am   66  ASN66      -0.0877
     50  N         -1.4470   97.3750   24.5730 N.3    69  LEU69      -0.1231
     51  CA        -1.7380   98.6440   25.2350 C.3    69  LEU69       0.1693
     52  C         -3.2220   98.7780   25.5720 C.2    69  LEU69       0.2591
     53  O         -3.5810   99.1950   26.6730 O.2    69  LEU69      -0.2718
     54  CB        -1.3260   99.8190   24.3520 C.3    69  LEU69       0.0284
     55  CG         0.1570  100.0500   24.0650 C.3    69  LEU69       0.0019
     56  CD1        0.4430  101.5410   24.1200 C.3    69  LEU69       0.0001
     57  CD2        1.0200   99.2980   25.0560 C.3    69  LEU69       0.0001
     58  N         -4.0840   98.4380   24.6210 N.am   70  ILE70      -0.1980
     59  CA        -5.5180   98.5290   24.8440 C.3    70  ILE70       0.1595
     60  C         -5.9450   97.6170   25.9920 C.2    70  ILE70       0.2287
     61  O         -6.8520   97.9400   26.7580 O.2    70  ILE70      -0.2864
     62  CB        -6.2790   98.1480   23.5720 C.3    70  ILE70       0.0276
     63  CG1       -5.9900   99.1830   22.4880 C.3    70  ILE70       0.0022
     64  CG2       -7.7670   98.0710   23.8390 C.3    70  ILE70       0.0022
     65  CD1       -6.3970   98.7320   21.1060 C.3    70  ILE70       0.0001
     66  N         -4.1490   96.6780   28.7410 N.3    72  SER72      -0.1202
     67  CA        -3.7620   97.2630   30.0190 C.3    72  SER72       0.2020
     68  C         -4.6220   98.4610   30.3900 C.2    72  SER72       0.2618
     69  O         -5.1000   98.5710   31.5210 O.2    72  SER72      -0.2717
     70  CB        -2.2950   97.6900   29.9850 C.3    72  SER72       0.2103
     71  OG        -1.4460   96.5690   30.1560 O.3    72  SER72      -0.2182
     72  N         -4.8240   99.3560   29.4300 N.am   73  ALA73      -0.1979
     73  CA        -5.6160  100.5530   29.6680 C.3    73  ALA73       0.1597
     74  C         -7.0600  100.2050   29.9570 C.2    73  ALA73       0.2287
     75  O         -7.7360  100.9160   30.6860 O.2    73  ALA73      -0.2864
     76  CB        -5.5430  101.4720   28.4690 C.3    73  ALA73       0.0319
     77  N         -7.1830   98.8620   33.5810 N.3    76  ARG76      -0.1245
     78  CA        -6.8770  100.0070   34.4280 C.3    76  ARG76       0.1563
     79  C         -8.0800  100.9370   34.5960 C.2    76  ARG76       0.2260
     80  O         -8.1630  101.6810   35.5690 O.2    76  ARG76      -0.2867
     81  CB        -5.7160  100.7790   33.8070 C.3    76  ARG76       0.0307
     82  CG        -5.1000  101.8360   34.6810 C.3    76  ARG76       0.0489
     83  CD        -3.7290  102.2290   34.1480 C.3    76  ARG76       0.2205
     84  NE        -3.8570  102.7910   32.8150 N.pl3  76  ARG76      -0.0865
     85  CZ        -3.1870  102.3720   31.7470 C.cat  76  ARG76       0.5346
     86  NH1       -2.3180  101.3710   31.8360 N.pl3  76  ARG76       0.1354
     87  NH2       -3.4130  102.9480   30.5760 N.pl3  76  ARG76       0.1354
     88  N        -11.7370  106.3160   29.9580 N.3    84  ILE84      -0.1245
     89  CA       -10.5350  105.5160   30.0710 C.3    84  ILE84       0.1561
     90  C         -9.4410  106.2950   30.7910 C.2    84  ILE84       0.2260
     91  O         -9.1870  107.4670   30.4950 O.2    84  ILE84      -0.2867
     92  CB       -10.0340  105.0990   28.6800 C.3    84  ILE84       0.0252
     93  CG1      -10.8230  103.8820   28.2090 C.3    84  ILE84       0.0019
     94  CG2       -8.5640  104.7630   28.7210 C.3    84  ILE84       0.0019
     95  CD1      -11.2340  103.9660   26.7590 C.3    84  ILE84       0.0001
     96  N         -5.7970  106.8630   31.1930 N.3    86  LEU86      -0.1231
     97  CA        -4.5460  106.6370   30.4790 C.3    86  LEU86       0.1693
     98  C         -3.4000  106.3530   31.4350 C.2    86  LEU86       0.2591
     99  O         -3.5040  106.5860   32.6360 O.2    86  LEU86      -0.2718
    100  CB        -4.2080  107.8490   29.6050 C.3    86  LEU86       0.0284
    101  CG        -5.2580  108.1930   28.5440 C.3    86  LEU86       0.0019
    102  CD1       -5.0100  109.5790   27.9710 C.3    86  LEU86       0.0001
    103  CD2       -5.2140  107.1370   27.4590 C.3    86  LEU86       0.0001
    104  N         -2.2960  105.8650   30.8920 N.am   87  ALA87      -0.1980
    105  CA        -1.1340  105.5320   31.6930 C.3    87  ALA87       0.1597
    106  C         -0.5230  106.8010   32.2600 C.2    87  ALA87       0.2287
    107  O          0.3370  106.7510   33.1420 O.2    87  ALA87      -0.2864
    108  CB        -0.1100  104.8010   30.8360 C.3    87  ALA87       0.0319
    109  N        -12.5880  109.1890   17.3990 N.3   102  VAL102     -0.1245
    110  CA       -12.4600  107.8110   17.8680 C.3   102  VAL102      0.1561
    111  C        -13.5710  107.4250   18.8370 C.2   102  VAL102      0.2260
    112  O        -13.4190  106.5060   19.6400 O.2   102  VAL102     -0.2867
    113  CB       -11.1230  107.6150   18.5690 C.3   102  VAL102      0.0252
    114  CG1       -9.9820  107.7840   17.5850 C.3   102  VAL102      0.0019
    115  CG2      -10.9920  108.6310   19.6890 C.3   102  VAL102      0.0019
    116  N        -14.6730  103.5920   18.5110 N.3   105  ILE105     -0.1231
    117  CA       -13.7060  102.6590   19.0940 C.3   105  ILE105      0.1692
    118  C        -13.8970  102.6780   20.5990 C.2   105  ILE105      0.2592
    119  O        -14.0570  101.6450   21.2500 O.2   105  ILE105     -0.2718
    120  CB       -12.2550  103.1000   18.8150 C.3   105  ILE105      0.0266
    121  CG1      -12.0190  103.2320   17.3130 C.3   105  ILE105      0.0019
    122  CG2      -11.2880  102.1130   19.4240 C.3   105  ILE105      0.0020
    123  CD1      -12.4100  104.6000   16.7630 C.3   105  ILE105      0.0001
    124  N        -13.8670  103.8870   21.1340 N.am  106  PHE106     -0.1976
    125  CA       -14.0350  104.1190   22.5540 C.3   106  PHE106      0.1639
    126  C        -15.2040  103.3550   23.1640 C.2   106  PHE106      0.2290
    127  O        -15.0200  102.5200   24.0500 O.2   106  PHE106     -0.2864
    128  CB       -14.2320  105.6040   22.7900 C.3   106  PHE106      0.0560
    129  CG       -13.5710  106.1030   24.0220 C.ar  106  PHE106     -0.0200
    130  CD1      -12.2080  106.3820   24.0250 C.ar  106  PHE106     -0.0042
    131  CD2      -14.3080  106.3050   25.1830 C.ar  106  PHE106     -0.0042
    132  CE1      -11.5850  106.8630   25.1700 C.ar  106  PHE106     -0.0003
    133  CE2      -13.6990  106.7860   26.3380 C.ar  106  PHE106     -0.0003
    134  CZ       -12.3330  107.0660   26.3330 C.ar  106  PHE106     -0.0000
    135  N        -14.4420   99.8820   23.3760 N.3   109  VAL109     -0.1245
    136  CA       -13.4790   99.5030   24.4050 C.3   109  VAL109      0.1561
    137  C        -14.2470   99.4130   25.7180 C.2   109  VAL109      0.2260
    138  O        -14.1790   98.4300   26.4560 O.2   109  VAL109     -0.2867
    139  CB       -12.3830  100.5690   24.5830 C.3   109  VAL109      0.0252
    140  CG1      -11.6270  100.3140   25.8660 C.3   109  VAL109      0.0019
    141  CG2      -11.4290  100.5440   23.4130 C.3   109  VAL109      0.0019
    142  N         -8.3260  100.4220   15.5650 N.3   192  CYS192     -0.1235
    143  CA        -7.4390  101.4670   16.0940 C.3   192  CYS192      0.1677
    144  C         -6.3020  101.8330   15.1670 C.2   192  CYS192      0.2270
    145  O         -5.7900  102.9500   15.2180 O.2   192  CYS192     -0.2867
    146  CB        -6.8280  101.0440   17.4280 C.3   192  CYS192      0.0956
    147  SG        -7.9110  101.2610   18.8450 S.3   192  CYS192     -0.0801
    148  N         -6.6480  104.7520   12.7250 N.3   195  HIS195     -0.1226
    149  CA        -6.5460  106.1120   13.2550 C.3   195  HIS195      0.1752
    150  C         -5.1170  106.5440   13.5310 C.2   195  HIS195      0.2595
    151  O         -4.8780  107.5780   14.1520 O.2   195  HIS195     -0.2718
    152  CB        -7.3690  106.2360   14.5370 C.3   195  HIS195      0.0759
    153  CG        -8.8390  106.0800   14.3150 C.ar  195  HIS195      0.0818
    154  ND1       -9.6760  107.1540   14.1110 N.ar  195  HIS195     -0.2268
    155  CD2       -9.6170  104.9750   14.2350 C.ar  195  HIS195      0.1154
    156  CE1      -10.9090  106.7180   13.9070 C.ar  195  HIS195      0.1986
    157  NE2      -10.9000  105.3970   13.9780 N.ar  195  HIS195     -0.2212
    158  N         -4.1590  105.7600   13.0640 N.am  196  LEU196     -0.1980
    159  CA        -2.7700  106.1020   13.2920 C.3   196  LEU196      0.1596
    160  C         -2.3010  107.2200   12.3730 C.2   196  LEU196      0.2287
    161  O         -1.2020  107.7470   12.5500 O.2   196  LEU196     -0.2864
    162  CB        -1.8940  104.8670   13.1100 C.3   196  LEU196      0.0297
    163  CG        -1.9270  103.9140   14.3070 C.3   196  LEU196      0.0022
    164  CD1       -1.2500  102.6110   13.9310 C.3   196  LEU196      0.0001
    165  CD2       -1.2410  104.5650   15.5090 C.3   196  LEU196      0.0001
    166  N         -3.0460  109.9490   14.9490 N.3   199  PHE199     -0.1241
    167  CA        -2.3720  109.8100   16.2380 C.3   199  PHE199      0.1605
    168  C         -0.9680  109.3700   15.9260 C.2   199  PHE199      0.2264
    169  O         -0.7250  108.1850   15.7010 O.2   199  PHE199     -0.2867
    170  CB        -3.0480  108.7520   17.1020 C.3   199  PHE199      0.0534
    171  CG        -4.3780  109.1710   17.6230 C.ar  199  PHE199     -0.0203
    172  CD1       -5.5230  108.9860   16.8570 C.ar  199  PHE199     -0.0042
    173  CD2       -4.4880  109.7790   18.8630 C.ar  199  PHE199     -0.0042
    174  CE1       -6.7690  109.4040   17.3170 C.ar  199  PHE199     -0.0003
    175  CE2       -5.7270  110.2030   19.3340 C.ar  199  PHE199     -0.0003
    176  CZ        -6.8740  110.0160   18.5570 C.ar  199  PHE199     -0.0000
    177  N          2.3790  108.3670   16.9840 N.3   201  LEU201     -0.1245
    178  CA         3.1350  107.8750   18.1270 C.3   201  LEU201      0.1561
    179  C          4.6450  107.9280   17.9120 C.2   201  LEU201      0.2260
    180  O          5.1220  108.0200   16.7790 O.2   201  LEU201     -0.2867
    181  CB         2.7020  106.4420   18.4580 C.3   201  LEU201      0.0270
    182  CG         1.1880  106.1900   18.4560 C.3   201  LEU201      0.0019
    183  CD1        0.9060  104.7510   18.8470 C.3   201  LEU201      0.0001
    184  CD2        0.5030  107.1440   19.4200 C.3   201  LEU201      0.0001
@<TRIPOS>BOND
     1   160   161    2
     2   160   159    1
     3   148   149    1
     4   158   159    1
     5   158   150   am
     6   162   159    1
     7   162   163    1
     8   149   150    1
     9   149   152    1
    10   150   151    2
    11   156   157   ar
    12   156   154   ar
    13   164   163    1
    14   157   155   ar
    15   154   153   ar
    16   155   153   ar
    17   163   165    1
    18   153   152    1
    19   166   167    1
    20   144   145    2
    21   144   143    1
    22   142   143    1
    23   169   168    2
    24   168   167    1
    25   143   146    1
    26   167   170    1
    27   123   121    1
    28   180   179    2
    29   172   174   ar
    30   172   171   ar
    31    36    37   ar
    32    36    34   ar
    33   177   178    1
    34    49    47   am
    35    39    37   ar
    36    39    41   ar
    37   170   171    1
    38   121   120    1
    39   174   176   ar
    40   109   110    1
    41   146   147    1
    42    37    35   ar
    43   114   113    1
    44   171   173   ar
    45    34    33   ar
    46    47    48    2
    47    47    46    1
    48   110   113    1
    49   110   111    1
    50   179   178    1
    51    41    40   ar
    52   178   181    1
    53   182   181    1
    54   182   183    1
    55   182   184    1
    56   116   117    1
    57   176   175   ar
    58    46    43    1
    59   113   115    1
    60   120   117    1
    61   120   122    1
    62   111   112    2
    63   173   175   ar
    64    35    33   ar
    65    35    38   ar
    66    33    32    1
    67   117   118    1
    68    40    38   ar
    69    28    29    1
    70    42    43    1
    71    42    30   am
    72    43    44    1
    73    32    29    1
    74   118   124   am
    75   118   119    2
    76    29    30    1
    77    44    45    2
    78    30    31    2
    79    65    63    1
    80   124   125    1
    81     7     5    1
    82    63    62    1
    83   125   128    1
    84   125   126    1
    85    18    15    1
    86   128   129    1
    87     5     6    1
    88     5     2    1
    89   126   127    2
    90   135   136    1
    91     3     4    2
    92     3     2    1
    93   141   139    1
    94     8     6    1
    95    62    64    1
    96    62    59    1
    97     2     1    1
    98   129   130   ar
    99   129   131   ar
   100   130   132   ar
   101    55    56    1
   102    55    54    1
   103    55    57    1
   104    16    15    1
   105    16    17    2
   106    15    14    1
   107    54    51    1
   108   136   139    1
   109   136   137    1
   110    50    51    1
   111   139   140    1
   112    58    59    1
   113    58    52   am
   114    59    60    1
   115    14    11   am
   116   132   134   ar
   117   131   133   ar
   118    51    52    1
   119    52    53    2
   120   137   138    2
   121    60    61    2
   122     9    10    1
   123    11    12    2
   124    11    10    1
   125   134   133   ar
   126    21    22    2
   127    21    20    1
   128    95    93    1
   129    10    13    1
   130    23    20    1
   131    23    24    1
   132    19    20    1
   133   103   101    1
   134   102   101    1
   135    93    92    1
   136    76    73    1
   137   101   100    1
   138    24    25    1
   139    92    94    1
   140    92    89    1
   141    66    67    1
   142    72    73    1
   143    72    68   am
   144   100    97    1
   145    73    74    1
   146    25    27   am
   147    25    26    2
   148    74    75    2
   149    88    89    1
   150    70    67    1
   151    70    71    1
   152    67    68    1
   153    89    90    1
   154    68    69    2
   155    97    96    1
   156    97    98    1
   157    91    90    2
   158    87    85    1
   159   108   105    1
   160   104    98   am
   161   104   105    1
   162    98    99    2
   163   105   106    1
   164    85    86    1
   165    85    84    2
   166   106   107    2
   167    84    83    1
   168    77    78    1
   169    81    78    1
   170    81    82    1
   171    83    82    1
   172    78    79    1
   173    79    80    2
