@<TRIPOS>MOLECULE
tmp/1dkfB00.pdb
 231 220 0 0 0
SMALL
GASTEIGER

@<TRIPOS>ATOM
      1  N        -26.0850   72.0650    7.0780 N.3    18  PHE18      -0.1241
      2  CA       -24.8110   72.1180    6.3870 C.3    18  PHE18       0.1605
      3  C        -24.3020   70.7120    6.1420 C.2    18  PHE18       0.2264
      4  O        -23.7210   70.0840    7.0220 O.2    18  PHE18      -0.2867
      5  CB       -23.7860   72.8990    7.2190 C.3    18  PHE18       0.0534
      6  CG       -22.5890   73.3690    6.4340 C.ar   18  PHE18      -0.0203
      7  CD1      -21.3570   72.7390    6.5770 C.ar   18  PHE18      -0.0042
      8  CD2      -22.6960   74.4490    5.5520 C.ar   18  PHE18      -0.0042
      9  CE1      -20.2460   73.1740    5.8580 C.ar   18  PHE18      -0.0003
     10  CE2      -21.5970   74.8950    4.8270 C.ar   18  PHE18      -0.0003
     11  CZ       -20.3650   74.2550    4.9810 C.ar   18  PHE18      -0.0000
     12  N        -19.6620   84.8800   -9.9790 N.3    41  TRP41      -0.1241
     13  CA       -20.2350   85.6780   -8.9160 C.3    41  TRP41       0.1605
     14  C        -21.7420   85.4460   -8.7560 C.2    41  TRP41       0.2264
     15  O        -22.2870   85.5310   -7.6570 O.2    41  TRP41      -0.2867
     16  CB       -19.9930   87.1600   -9.1740 C.3    41  TRP41       0.0550
     17  CG       -20.8790   87.9800   -8.3120 C.ar   41  TRP41       0.0003
     18  CD1      -22.0930   88.5060   -8.6450 C.ar   41  TRP41       0.0946
     19  CD2      -20.6860   88.2630   -6.9230 C.ar   41  TRP41       0.0152
     20  NE1      -22.6720   89.0900   -7.5480 N.ar   41  TRP41      -0.2442
     21  CE2      -21.8310   88.9540   -6.4750 C.ar   41  TRP41       0.0810
     22  CE3      -19.6560   87.9900   -6.0080 C.ar   41  TRP41       0.0012
     23  CZ2      -21.9730   89.3860   -5.1470 C.ar   41  TRP41       0.0191
     24  CZ3      -19.7990   88.4170   -4.6890 C.ar   41  TRP41       0.0001
     25  CH2      -20.9490   89.1080   -4.2730 C.ar   41  TRP41       0.0015
     26  N        -22.1530   82.0650   -6.9200 N.3    44  PHE44      -0.1227
     27  CA       -21.6300   82.2510   -5.5820 C.3    44  PHE44       0.1736
     28  C        -22.5610   83.1040   -4.7380 C.2    44  PHE44       0.2596
     29  O        -22.8180   82.7970   -3.5740 O.2    44  PHE44      -0.2718
     30  CB       -20.2690   82.9170   -5.6920 C.3    44  PHE44       0.0547
     31  CG       -19.7070   83.3660   -4.3920 C.ar   44  PHE44      -0.0202
     32  CD1      -19.3470   82.4380   -3.4170 C.ar   44  PHE44      -0.0042
     33  CD2      -19.4940   84.7170   -4.1490 C.ar   44  PHE44      -0.0042
     34  CE1      -18.7760   82.8460   -2.2170 C.ar   44  PHE44      -0.0003
     35  CE2      -18.9220   85.1370   -2.9500 C.ar   44  PHE44      -0.0003
     36  CZ       -18.5630   84.1910   -1.9860 C.ar   44  PHE44      -0.0000
     37  N        -23.0540   84.1830   -5.3340 N.am   45  SER45      -0.1952
     38  CA       -23.9630   85.1000   -4.6650 C.3    45  SER45       0.1924
     39  C        -25.2410   84.3420   -4.3160 C.2    45  SER45       0.2314
     40  O        -25.8890   84.5760   -3.2880 O.2    45  SER45      -0.2863
     41  CB       -24.2810   86.2630   -5.6010 C.3    45  SER45       0.2116
     42  OG       -24.9390   87.3100   -4.9180 O.3    45  SER45      -0.2180
     43  N        -25.5810   80.8030   -3.9530 N.3    47  LEU47      -0.1231
     44  CA       -25.2430   79.8490   -2.9160 C.3    47  LEU47       0.1693
     45  C        -25.1180   80.5230   -1.5560 C.2    47  LEU47       0.2593
     46  O        -25.5550   79.9670   -0.5500 O.2    47  LEU47      -0.2718
     47  CB       -23.9440   79.1340   -3.2860 C.3    47  LEU47       0.0284
     48  CG       -24.1380   78.0900   -4.3900 C.3    47  LEU47       0.0019
     49  CD1      -22.7950   77.6220   -4.9330 C.3    47  LEU47       0.0001
     50  CD2      -24.9360   76.9180   -3.8340 C.3    47  LEU47       0.0001
     51  N        -24.5340   81.7210   -1.5280 N.am   48  SER48      -0.1938
     52  CA       -24.3850   82.4670   -0.2800 C.3    48  SER48       0.2055
     53  C        -25.7700   82.7600    0.2920 C.2    48  SER48       0.2643
     54  O        -26.0760   82.4140    1.4350 O.2    48  SER48      -0.2714
     55  CB       -23.6400   83.7810   -0.5180 C.3    48  SER48       0.2130
     56  OG       -22.2560   83.5620   -0.6960 O.3    48  SER48      -0.2179
     57  N        -26.6170   83.3850   -0.5120 N.am   49  THR49      -0.1950
     58  CA       -27.9580   83.7020   -0.0540 C.3    49  THR49       0.1897
     59  C        -28.5730   82.4900    0.6310 C.2    49  THR49       0.2313
     60  O        -29.1040   82.5770    1.7400 O.2    49  THR49      -0.2863
     61  CB       -28.8540   84.1150   -1.2270 C.3    49  THR49       0.1794
     62  OG1      -28.3660   85.3400   -1.7800 O.3    49  THR49      -0.2208
     63  CG2      -30.2850   84.3130   -0.7620 C.3    49  THR49       0.0378
     64  N        -27.1040   79.8550    1.9020 N.3    51  CYS51      -0.1221
     65  CA       -26.4320   79.4900    3.1300 C.3    51  CYS51       0.1808
     66  C        -26.8250   80.3980    4.2760 C.2    51  CYS51       0.2601
     67  O        -26.8630   79.9600    5.4210 O.2    51  CYS51      -0.2717
     68  CB       -24.9270   79.5130    2.9570 C.3    51  CYS51       0.0970
     69  SG       -24.1260   78.4890    4.1740 S.3    51  CYS51      -0.0800
     70  N        -27.1160   81.6600    3.9760 N.am   52  ILE52      -0.1979
     71  CA       -27.5270   82.5930    5.0180 C.3    52  ILE52       0.1595
     72  C        -28.8690   82.1210    5.5530 C.2    52  ILE52       0.2287
     73  O        -29.1240   82.1370    6.7580 O.2    52  ILE52      -0.2864
     74  CB       -27.6920   84.0200    4.4750 C.3    52  ILE52       0.0276
     75  CG1      -26.3600   84.7470    4.5430 C.3    52  ILE52       0.0022
     76  CG2      -28.7110   84.7870    5.3030 C.3    52  ILE52       0.0022
     77  CD1      -25.8080   85.0430    3.2020 C.3    52  ILE52       0.0001
     78  N        -21.4640   86.5130    8.1630 N.3    82  LEU82      -0.1245
     79  CA       -20.2480   86.3200    7.3930 C.3    82  LEU82       0.1561
     80  C        -19.3320   85.3710    8.1420 C.2    82  LEU82       0.2260
     81  O        -18.7520   84.4580    7.5550 O.2    82  LEU82      -0.2867
     82  CB       -19.5230   87.6440    7.1740 C.3    82  LEU82       0.0270
     83  CG       -19.4250   88.1320    5.7240 C.3    82  LEU82       0.0019
     84  CD1      -18.4150   89.2700    5.6360 C.3    82  LEU82       0.0001
     85  CD2      -19.0170   86.9890    4.8230 C.3    82  LEU82       0.0001
     86  N        -20.4770   81.9220    7.5620 N.3    85  LEU85      -0.1231
     87  CA       -20.3620   81.4920    6.1850 C.3    85  LEU85       0.1693
     88  C        -18.9000   81.1580    5.9300 C.2    85  LEU85       0.2591
     89  O        -18.5690   80.1000    5.3890 O.2    85  LEU85      -0.2718
     90  CB       -20.8290   82.6060    5.2510 C.3    85  LEU85       0.0284
     91  CG       -22.2660   82.4450    4.7430 C.3    85  LEU85       0.0019
     92  CD1      -23.1710   81.9310    5.8610 C.3    85  LEU85       0.0001
     93  CD2      -22.7600   83.7790    4.2170 C.3    85  LEU85       0.0001
     94  N        -18.0210   82.0550    6.3540 N.am   86  ILE86      -0.1980
     95  CA       -16.5960   81.8540    6.1610 C.3    86  ILE86       0.1595
     96  C        -16.1100   80.6010    6.8640 C.2    86  ILE86       0.2287
     97  O        -15.2810   79.8670    6.3230 O.2    86  ILE86      -0.2864
     98  CB       -15.7800   83.0730    6.6670 C.3    86  ILE86       0.0276
     99  CG1      -16.2660   84.3420    5.9520 C.3    86  ILE86       0.0022
    100  CG2      -14.2850   82.8490    6.4340 C.3    86  ILE86       0.0022
    101  CD1      -15.3320   85.5210    6.0390 C.3    86  ILE86       0.0001
    102  N        -17.9810   78.0750    7.6700 N.3    88  ARG88      -0.1231
    103  CA       -18.6380   76.9640    7.0120 C.3    88  ARG88       0.1694
    104  C        -17.9030   76.5710    5.7310 C.2    88  ARG88       0.2591
    105  O        -17.4780   75.4270    5.5660 O.2    88  ARG88      -0.2718
    106  CB       -20.0780   77.3500    6.6980 C.3    88  ARG88       0.0321
    107  CG       -21.0180   77.1910    7.8780 C.3    88  ARG88       0.0489
    108  CD       -22.4580   77.4850    7.5060 C.3    88  ARG88       0.2205
    109  NE       -23.3450   76.9750    8.5400 N.pl3  88  ARG88      -0.0865
    110  CZ       -24.5680   76.4980    8.3300 C.cat  88  ARG88       0.5346
    111  NH1      -25.0830   76.4550    7.1050 N.pl3  88  ARG88       0.1354
    112  NH2      -25.2690   76.0310    9.3550 N.pl3  88  ARG88       0.1354
    113  N        -17.7390   77.5290    4.8270 N.am   89  ILE89      -0.1980
    114  CA       -17.0670   77.2380    3.5740 C.3    89  ILE89       0.1595
    115  C        -15.6610   76.7100    3.8000 C.2    89  ILE89       0.2287
    116  O        -15.2070   75.8230    3.0850 O.2    89  ILE89      -0.2864
    117  CB       -17.0340   78.4850    2.6310 C.3    89  ILE89       0.0276
    118  CG1      -16.6830   78.0430    1.2030 C.3    89  ILE89       0.0022
    119  CG2      -16.0580   79.5210    3.1400 C.3    89  ILE89       0.0022
    120  CD1      -17.6140   76.9610    0.6430 C.3    89  ILE89       0.0001
    121  N        -15.0130   73.0830    4.2080 N.3    92  ARG92      -0.1245
    122  CA       -15.3180   72.3240    2.9980 C.3    92  ARG92       0.1563
    123  C        -14.0980   72.3750    2.0780 C.2    92  ARG92       0.2260
    124  O        -14.2090   72.2750    0.8520 O.2    92  ARG92      -0.2867
    125  CB       -16.5280   72.9460    2.2910 C.3    92  ARG92       0.0307
    126  CG       -17.8580   72.7000    2.9830 C.3    92  ARG92       0.0489
    127  CD       -18.4810   71.3840    2.5370 C.3    92  ARG92       0.2205
    128  NE       -19.8980   71.2780    2.8940 N.pl3  92  ARG92      -0.0865
    129  CZ       -20.8160   72.1840    2.5830 C.cat  92  ARG92       0.5346
    130  NH1      -20.4740   73.2700    1.9040 N.pl3  92  ARG92       0.1354
    131  NH2      -22.0730   72.0060    2.9550 N.pl3  92  ARG92       0.1354
    132  N        -19.1560   73.7180   -2.1490 N.3   102  PHE102     -0.1227
    133  CA       -20.3830   74.3290   -1.6730 C.3   102  PHE102      0.1736
    134  C        -21.4390   73.3350   -1.2550 C.2   102  PHE102      0.2596
    135  O        -21.2880   72.1400   -1.4590 O.2   102  PHE102     -0.2718
    136  CB       -20.9180   75.2780   -2.7320 C.3   102  PHE102      0.0547
    137  CG       -20.0500   76.4760   -2.9250 C.ar  102  PHE102     -0.0202
    138  CD1      -18.8940   76.3910   -3.6820 C.ar  102  PHE102     -0.0042
    139  CD2      -20.3470   77.6750   -2.2950 C.ar  102  PHE102     -0.0042
    140  CE1      -18.0490   77.4840   -3.8040 C.ar  102  PHE102     -0.0003
    141  CE2      -19.5080   78.7720   -2.4110 C.ar  102  PHE102     -0.0003
    142  CZ       -18.3590   78.6780   -3.1640 C.ar  102  PHE102     -0.0000
    143  N        -22.5100   73.8400   -0.6590 N.am  103  SER103     -0.1952
    144  CA       -23.5820   72.9930   -0.1670 C.3   103  SER103      0.1924
    145  C        -24.3590   72.2220   -1.2390 C.2   103  SER103      0.2314
    146  O        -25.1010   71.2850   -0.9190 O.2   103  SER103     -0.2863
    147  CB       -24.5380   73.8300    0.6850 C.3   103  SER103      0.2116
    148  OG       -24.0320   73.9800    2.0060 O.3   103  SER103     -0.2180
    149  N        -15.4300   86.1090   -6.2100 N.3   117  GLY117     -0.1210
    150  CA       -15.6880   87.2100   -5.2930 C.3   117  GLY117      0.1956
    151  C        -14.6790   87.4010   -4.1670 C.2   117  GLY117      0.2611
    152  O        -14.5730   88.4960   -3.6120 O.2   117  GLY117     -0.2717
    153  N        -13.9330   86.3550   -3.8240 N.am  118  PHE118     -0.1976
    154  CA       -12.9590   86.4570   -2.7440 C.3   118  PHE118      0.1639
    155  C        -11.9810   87.5760   -3.0060 C.2   118  PHE118      0.2290
    156  O        -11.4660   88.1950   -2.0770 O.2   118  PHE118     -0.2864
    157  CB       -12.2080   85.1400   -2.5760 C.3   118  PHE118      0.0560
    158  CG       -12.9190   84.1560   -1.7010 C.ar  118  PHE118     -0.0200
    159  CD1      -14.2950   84.2410   -1.5120 C.ar  118  PHE118     -0.0042
    160  CD2      -12.2210   83.1480   -1.0610 C.ar  118  PHE118     -0.0042
    161  CE1      -14.9690   83.3380   -0.6980 C.ar  118  PHE118     -0.0003
    162  CE2      -12.8890   82.2340   -0.2390 C.ar  118  PHE118     -0.0003
    163  CZ       -14.2710   82.3360   -0.0600 C.ar  118  PHE118     -0.0000
    164  N         -9.1790   88.9260   -0.6280 N.3   121  LEU121     -0.1245
    165  CA        -9.2600   88.1300    0.5890 C.3   121  LEU121      0.1561
    166  C         -9.0500   86.6450    0.3190 C.2   121  LEU121      0.2260
    167  O         -9.1090   85.8300    1.2370 O.2   121  LEU121     -0.2867
    168  CB       -10.6270   88.3380    1.2440 C.3   121  LEU121      0.0270
    169  CG       -10.9050   89.6190    2.0450 C.3   121  LEU121      0.0019
    170  CD1       -9.9640   90.7360    1.6510 C.3   121  LEU121      0.0001
    171  CD2      -12.3390   90.0390    1.8170 C.3   121  LEU121      0.0001
    172  N         -8.5530   83.8420    3.2450 N.3   125  VAL125     -0.1245
    173  CA        -9.5000   82.8180    3.6320 C.3   125  VAL125      0.1561
    174  C         -8.9190   81.4170    3.4730 C.2   125  VAL125      0.2260
    175  O         -9.1480   80.5480    4.3120 O.2   125  VAL125     -0.2867
    176  CB       -10.7720   82.9260    2.7890 C.3   125  VAL125      0.0252
    177  CG1      -11.8090   81.9320    3.2740 C.3   125  VAL125      0.0019
    178  CG2      -11.3070   84.3390    2.8550 C.3   125  VAL125      0.0019
    179  N        -13.9850   91.1730    5.1350 N.3   207  GLY207     -0.1225
    180  CA       -15.0000   90.6110    4.2750 C.3   207  GLY207      0.1811
    181  C        -16.1320   91.5840    4.0580 C.2   207  GLY207      0.2280
    182  O        -16.5800   91.7790    2.9280 O.2   207  GLY207     -0.2866
    183  N        -15.2260   94.3030    1.6480 N.3   210  ARG210     -0.1231
    184  CA       -15.3160   93.9050    0.2500 C.3   210  ARG210      0.1694
    185  C        -16.7790   93.9130   -0.1500 C.2   210  ARG210      0.2591
    186  O        -17.1270   94.3180   -1.2550 O.2   210  ARG210     -0.2718
    187  CB       -14.7540   92.5040    0.0540 C.3   210  ARG210      0.0321
    188  CG       -14.8770   91.9810   -1.3640 C.3   210  ARG210      0.0489
    189  CD       -13.5770   91.3270   -1.7930 C.3   210  ARG210      0.2205
    190  NE       -13.6140   90.8390   -3.1660 N.pl3 210  ARG210     -0.0865
    191  CZ       -13.6140   91.6180   -4.2440 C.cat 210  ARG210      0.5346
    192  NH1      -13.5780   92.9370   -4.1250 N.pl3 210  ARG210      0.1354
    193  NH2      -13.6480   91.0720   -5.4490 N.pl3 210  ARG210      0.1354
    194  N        -17.6290   93.4650    0.7670 N.am  211  VAL211     -0.1980
    195  CA       -19.0640   93.4040    0.5360 C.3   211  VAL211      0.1595
    196  C        -19.6580   94.7370    0.0910 C.2   211  VAL211      0.2287
    197  O        -20.5360   94.7570   -0.7760 O.2   211  VAL211     -0.2864
    198  CB       -19.8020   92.9120    1.8060 C.3   211  VAL211      0.0276
    199  CG1      -21.0840   93.7010    2.0340 C.3   211  VAL211      0.0022
    200  CG2      -20.1100   91.4370    1.6730 C.3   211  VAL211      0.0022
    201  N        -18.3780   95.4280   -3.5350 N.3   214  LEU214     -0.1245
    202  CA       -19.1830   94.6630   -4.4780 C.3   214  LEU214      0.1561
    203  C        -20.6040   95.1960   -4.5950 C.2   214  LEU214      0.2260
    204  O        -21.1420   95.2930   -5.6920 O.2   214  LEU214     -0.2867
    205  CB       -19.2170   93.1930   -4.0640 C.3   214  LEU214      0.0270
    206  CG       -17.8440   92.5190   -4.1060 C.3   214  LEU214      0.0019
    207  CD1      -17.8560   91.2170   -3.3100 C.3   214  LEU214      0.0001
    208  CD2      -17.4680   92.2640   -5.5510 C.3   214  LEU214      0.0001
    209  N        -26.7470   91.6550   -3.4440 N.3   222  MET222     -0.1231
    210  CA       -26.9710   91.3020   -2.0390 C.3   222  MET222      0.1687
    211  C        -28.0420   92.0890   -1.2770 C.2   222  MET222      0.2434
    212  O        -27.7290   92.9390   -0.4340 O.2   222  MET222     -0.2733
    213  CB       -25.6470   91.3800   -1.2620 C.3   222  MET222      0.0400
    214  CG       -24.4860   90.6640   -1.9410 C.3   222  MET222      0.0596
    215  SD       -22.8540   91.3100   -1.5040 S.3   222  MET222     -0.1393
    216  CE       -22.9940   91.3530    0.2750 C.3   222  MET222      0.0692
    217  N        -29.3230   91.8070   -1.5540 N.am  223  PRO223     -0.2729
    218  CA       -30.3940   92.5210   -0.8490 C.3   223  PRO223      0.1401
    219  C        -30.4450   92.0800    0.6200 C.2   223  PRO223      0.2269
    220  O        -30.2140   90.9070    0.9230 O.2   223  PRO223     -0.2865
    221  CB       -31.6560   92.1100   -1.6070 C.3   223  PRO223      0.0296
    222  CG       -31.3170   90.7670   -2.1950 C.3   223  PRO223      0.0237
    223  CD       -29.8480   90.8300   -2.5280 C.3   223  PRO223      0.0939
    224  N        -31.7570   90.7410    4.1670 N.3   225  LEU225     -0.1245
    225  CA       -32.7750   89.7130    4.3190 C.3   225  LEU225      0.1561
    226  C        -32.9240   89.0070    5.6620 C.2   225  LEU225      0.2260
    227  O        -33.9960   88.4610    5.9370 O.2   225  LEU225     -0.2867
    228  CB       -32.6010   88.6670    3.2070 C.3   225  LEU225      0.0270
    229  CG       -31.8670   87.3550    3.5040 C.3   225  LEU225      0.0019
    230  CD1      -32.8770   86.2170    3.4820 C.3   225  LEU225      0.0001
    231  CD2      -30.7650   87.1120    2.4740 C.3   225  LEU225      0.0001
@<TRIPOS>BOND
     1    12    13    1
     2    16    13    1
     3    16    17    1
     4    13    14    1
     5    14    15    2
     6    18    17   ar
     7    18    20   ar
     8    17    19   ar
     9    20    21   ar
    10    19    21   ar
    11    19    22   ar
    12    26    27    1
    13    21    23   ar
    14   149   150    1
    15    22    24   ar
    16    30    27    1
    17    30    31    1
    18   204   203    2
    19    41    42    1
    20    41    38    1
    21    27    28    1
    22   208   206    1
    23   193   191    1
    24    37    28   am
    25    37    38    1
    26   150   151    1
    27    23    25   ar
    28    49    48    1
    29    28    29    2
    30    24    25   ar
    31    38    39    1
    32   203   202    1
    33   202   205    1
    34   202   201    1
    35    31    33   ar
    36    31    32   ar
    37    48    50    1
    38    48    47    1
    39    39    40    2
    40   191   192    1
    41   191   190    2
    42   151   153   am
    43   151   152    2
    44    33    35   ar
    45   206   205    1
    46   206   207    1
    47    43    44    1
    48   153   154    1
    49   140   138   ar
    50   140   142   ar
    51   138   137   ar
    52   209   210    1
    53    32    34   ar
    54    47    44    1
    55   190   189    1
    56   142   141   ar
    57   155   154    1
    58   155   156    2
    59    35    36   ar
    60   137   136    1
    61   137   139   ar
    62    44    45    1
    63   154   157    1
    64   136   133    1
    65   157   158    1
    66   223   222    1
    67   223   217    1
    68   141   139   ar
    69    34    36   ar
    70   222   221    1
    71   132   133    1
    72   210   211    1
    73   210   213    1
    74   214   215    1
    75   214   213    1
    76   189   188    1
    77    62    61    1
    78   158   159   ar
    79   158   160   ar
    80   133   134    1
    81   221   218    1
    82    45    51   am
    83    45    46    2
    84   217   211   am
    85   217   218    1
    86    51    52    1
    87   159   161   ar
    88   215   216    1
    89   135   134    2
    90   188   187    1
    91   211   212    2
    92   134   143   am
    93   186   185    2
    94   145   146    2
    95   145   144    1
    96    61    63    1
    97    61    58    1
    98   160   162   ar
    99   218   219    1
   100   197   196    2
   101   161   163   ar
   102    56    55    1
   103   143   144    1
   104   164   165    1
   105    55    52    1
   106    57    58    1
   107    57    53   am
   108    52    53    1
   109   162   163   ar
   110   144   147    1
   111   185   184    1
   112   185   194   am
   113    58    59    1
   114   187   184    1
   115   196   195    1
   116   184   183    1
   117    53    54    2
   118   166   165    1
   119   166   167    2
   120   195   194    1
   121   195   198    1
   122   165   168    1
   123   219   220    2
   124    59    60    2
   125   120   118    1
   126   147   148    1
   127   124   123    2
   128   118   117    1
   129   168   169    1
   130   170   169    1
   131   200   198    1
   132   198   199    1
   133   171   169    1
   134    64    65    1
   135   130   129    1
   136   123   122    1
   137   125   126    1
   138   125   122    1
   139   231   229    1
   140   127   128    1
   141   127   126    1
   142   129   128    2
   143   129   131    1
   144   117   119    1
   145   117   114    1
   146   176   178    1
   147   176   177    1
   148   176   173    1
   149   182   181    2
   150    68    65    1
   151    68    69    1
   152   122   121    1
   153   116   115    2
   154    65    66    1
   155    77    75    1
   156   228   229    1
   157   228   225    1
   158   172   173    1
   159   174   173    1
   160   174   175    2
   161   230   229    1
   162   114   115    1
   163   114   113    1
   164    70    66   am
   165    70    71    1
   166   181   180    1
   167   224   225    1
   168    93    91    1
   169   180   179    1
   170    66    67    2
   171   225   226    1
   172    74    75    1
   173    74    71    1
   174    74    76    1
   175    91    90    1
   176    91    92    1
   177    85    83    1
   178    10    11   ar
   179    10     8   ar
   180   113   104   am
   181    11     9   ar
   182    71    72    1
   183    90    87    1
   184    89    88    2
   185     8     6   ar
   186    72    73    2
   187   105   104    2
   188    84    83    1
   189   226   227    2
   190    83    82    1
   191   104   103    1
   192     9     7   ar
   193    88    87    1
   194    88    94   am
   195    99   101    1
   196    99    98    1
   197     3     2    1
   198     3     4    2
   199    95    94    1
   200    95    98    1
   201    95    96    1
   202    87    86    1
   203    97    96    2
   204     2     1    1
   205     2     5    1
   206     6     7   ar
   207     6     5    1
   208   100    98    1
   209   106   103    1
   210   106   107    1
   211   103   102    1
   212   111   110    1
   213    82    79    1
   214    79    80    1
   215    79    78    1
   216   108   107    1
   217   108   109    1
   218    81    80    2
   219   110   109    2
   220   110   112    1
