@<TRIPOS>MOLECULE
tmp/1dkqA00.pdb
 160 151 0 0 0
SMALL
GASTEIGER

@<TRIPOS>ATOM
      1  N          4.0680   33.9670   30.8450 N.3    16  ARG16      -0.1231
      2  CA         2.8430   34.5280   30.3300 C.3    16  ARG16       0.1694
      3  C          2.6790   35.7750   31.1840 C.2    16  ARG16       0.2591
      4  O          3.2360   35.8470   32.2920 O.2    16  ARG16      -0.2718
      5  CB         1.6590   33.5970   30.5800 C.3    16  ARG16       0.0321
      6  CG         0.3290   34.2840   30.3010 C.3    16  ARG16       0.0489
      7  CD        -0.8640   33.3950   30.5820 C.3    16  ARG16       0.2205
      8  NE        -2.0840   34.0950   30.2040 N.pl3  16  ARG16      -0.0865
      9  CZ        -3.2940   33.7970   30.6600 C.cat  16  ARG16       0.5346
     10  NH1       -3.4610   32.7980   31.5190 N.pl3  16  ARG16       0.1354
     11  NH2       -4.3350   34.5150   30.2680 N.pl3  16  ARG16       0.1354
     12  N          1.9440   36.7630   30.6800 N.am   17  ALA17      -0.1980
     13  CA         1.7060   37.9720   31.4520 C.3    17  ALA17       0.1597
     14  C          0.9050   37.5500   32.6830 C.2    17  ALA17       0.2287
     15  O          0.3330   36.4580   32.7110 O.2    17  ALA17      -0.2864
     16  CB         0.9180   38.9950   30.6270 C.3    17  ALA17       0.0319
     17  N         -4.7260   40.0140   34.7260 N.3    20  ARG20      -0.1245
     18  CA        -5.1820   41.2080   34.0310 C.3    20  ARG20       0.1563
     19  C         -6.7020   41.1960   33.9970 C.2    20  ARG20       0.2260
     20  O         -7.3290   40.1840   34.3110 O.2    20  ARG20      -0.2867
     21  CB        -4.6820   41.1700   32.5850 C.3    20  ARG20       0.0307
     22  CG        -5.1470   39.8990   31.8620 C.3    20  ARG20       0.0489
     23  CD        -5.0400   40.0130   30.3430 C.3    20  ARG20       0.2205
     24  NE        -5.3020   38.7410   29.6650 N.pl3  20  ARG20      -0.0865
     25  CZ        -6.4990   38.1730   29.5420 C.cat  20  ARG20       0.5346
     26  NH1       -6.6210   37.0110   28.9010 N.pl3  20  ARG20       0.1354
     27  NH2       -7.5770   38.7550   30.0490 N.pl3  20  ARG20       0.1354
     28  N         -9.9610   41.0160   28.3080 N.3    23  THR23      -0.1203
     29  CA        -9.5910   41.8350   27.1580 C.3    23  THR23       0.1994
     30  C        -10.7810   42.5240   26.4950 C.2    23  THR23       0.2617
     31  O        -10.6110   43.5250   25.8030 O.2    23  THR23      -0.2717
     32  CB        -8.8450   41.0120   26.0880 C.3    23  THR23       0.1784
     33  OG1       -9.6840   39.9430   25.6410 O.3    23  THR23      -0.2211
     34  CG2       -7.5490   40.4380   26.6590 C.3    23  THR23       0.0376
     35  N        -11.9850   42.0030   26.7060 N.am   24  LYS24      -0.1979
     36  CA       -13.1520   42.6170   26.0910 C.3    24  LYS24       0.1596
     37  C        -14.4220   42.5270   26.9200 C.2    24  LYS24       0.2287
     38  O        -14.4950   41.7750   27.8930 O.2    24  LYS24      -0.2864
     39  CB       -13.3900   42.0110   24.7050 C.3    24  LYS24       0.0298
     40  CG       -13.5160   40.5060   24.7020 C.3    24  LYS24       0.0038
     41  CD       -13.3690   39.9450   23.2970 C.3    24  LYS24       0.0206
     42  CE       -12.0040   40.2790   22.7140 C.3    24  LYS24       0.1093
     43  NZ       -11.8070   39.7040   21.3550 N.3    24  LYS24      -0.1314
     44  N          2.6590   44.9100   24.4370 N.3    90  ASP90      -0.1239
     45  CA         1.4480   45.1440   25.2360 C.3    90  ASP90       0.1674
     46  C          1.7180   45.7470   26.6170 C.2    90  ASP90       0.2266
     47  O          2.7970   45.5730   27.1880 O.2    90  ASP90      -0.2867
     48  CB         0.6580   43.8360   25.4160 C.3    90  ASP90       0.1410
     49  CG         0.1840   43.2430   24.0910 C.2    90  ASP90       0.3668
     50  OD1        0.1850   43.9620   23.0660 O.co2  90  ASP90      -0.2456
     51  OD2       -0.2080   42.0570   24.0760 O.co2  90  ASP90      -0.2456
     52  N          0.2690   44.9050   29.4350 N.3    92  ARG92      -0.1245
     53  CA         0.3990   43.8290   30.4170 C.3    92  ARG92       0.1563
     54  C          1.7180   43.0540   30.3910 C.2    92  ARG92       0.2260
     55  O          2.1850   42.5990   31.4390 O.2    92  ARG92      -0.2867
     56  CB        -0.7920   42.8600   30.3210 C.3    92  ARG92       0.0307
     57  CG        -0.9500   42.0980   29.0100 C.3    92  ARG92       0.0489
     58  CD        -2.0510   41.0620   29.1850 C.3    92  ARG92       0.2205
     59  NE        -2.3900   40.3490   27.9530 N.pl3  92  ARG92      -0.0865
     60  CZ        -3.0730   40.8730   26.9390 C.cat  92  ARG92       0.5346
     61  NH1       -3.5030   42.1330   26.9940 N.pl3  92  ARG92       0.1354
     62  NH2       -3.3430   40.1290   25.8720 N.pl3  92  ARG92       0.1354
     63  N          0.6370   36.7720   12.5180 N.3   129  LYS129     -0.1245
     64  CA        -0.0930   38.0220   12.5950 C.3   129  LYS129      0.1561
     65  C          0.5600   39.1590   11.8090 C.2   129  LYS129      0.2260
     66  O         -0.1360   39.9790   11.2120 O.2   129  LYS129     -0.2867
     67  CB        -0.2540   38.4170   14.0710 C.3   129  LYS129      0.0271
     68  CG        -1.0710   39.6710   14.3080 C.3   129  LYS129      0.0035
     69  CD        -1.5230   39.7750   15.7560 C.3   129  LYS129      0.0206
     70  CE        -0.3550   39.9050   16.7190 C.3   129  LYS129      0.1093
     71  NZ        -0.8300   40.0450   18.1330 N.3   129  LYS129     -0.1314
     72  N        -13.9870   29.3360   26.3880 N.3   215  SER215     -0.1202
     73  CA       -12.5690   29.3950   26.7330 C.3   215  SER215      0.2020
     74  C        -12.2790   30.7500   27.3770 C.2   215  SER215      0.2618
     75  O        -11.5500   30.8400   28.3630 O.2   215  SER215     -0.2717
     76  CB       -11.6940   29.2030   25.4870 C.3   215  SER215      0.2103
     77  OG       -10.3150   29.3340   25.8190 O.3   215  SER215     -0.2182
     78  N        -12.8690   31.8040   26.8230 N.am  216  MET216     -0.1979
     79  CA       -12.6810   33.1540   27.3510 C.3   216  MET216      0.1605
     80  C        -13.3850   33.3610   28.7070 C.2   216  MET216      0.2287
     81  O        -12.7940   33.8780   29.6610 O.2   216  MET216     -0.2864
     82  CB       -13.2070   34.1680   26.3400 C.3   216  MET216      0.0413
     83  CG       -13.0370   35.6170   26.7730 C.3   216  MET216      0.0598
     84  SD       -14.0280   36.7150   25.7520 S.3   216  MET216     -0.1393
     85  CE       -13.2090   36.5600   24.1920 C.3   216  MET216      0.0692
     86  N        -11.7340   31.4880   31.6210 N.3   219  GLU219     -0.1245
     87  CA       -10.4710   32.1130   31.9630 C.3   219  GLU219      0.1567
     88  C        -10.7780   33.3680   32.7820 C.2   219  GLU219      0.2260
     89  O        -10.0360   33.7140   33.7020 O.2   219  GLU219     -0.2867
     90  CB        -9.6950   32.4900   30.6910 C.3   219  GLU219      0.0388
     91  CG        -8.4520   33.3390   30.9600 C.3   219  GLU219      0.1160
     92  CD        -7.3560   32.6030   31.7310 C.2   219  GLU219      0.3649
     93  OE1       -6.3750   33.2690   32.1340 O.co2 219  GLU219     -0.2457
     94  OE2       -7.4590   31.3680   31.9340 O.co2 219  GLU219     -0.2457
     95  N        -11.2530   25.8370   28.5150 N.3   250  HIS250     -0.1241
     96  CA       -10.2010   26.7440   28.1070 C.3   250  HIS250      0.1621
     97  C         -9.0240   25.9240   27.5730 C.2   250  HIS250      0.2264
     98  O         -8.5180   26.1750   26.4780 O.2   250  HIS250     -0.2867
     99  CB        -9.7800   27.5740   29.3090 C.3   250  HIS250      0.0745
    100  CG        -8.7280   28.5830   29.0000 C.ar  250  HIS250      0.0817
    101  ND1       -8.9580   29.6750   28.1910 N.ar  250  HIS250     -0.2268
    102  CD2       -7.4300   28.6510   29.3690 C.ar  250  HIS250      0.1154
    103  CE1       -7.8440   30.3730   28.0750 C.ar  250  HIS250      0.1986
    104  NE2       -6.9030   29.7710   28.7790 N.ar  250  HIS250     -0.2212
    105  N         -9.6560   24.3890   24.0430 N.3   253  GLN253     -0.1231
    106  CA        -9.4850   25.2250   22.8670 C.3   253  GLN253      0.1698
    107  C         -8.0090   25.4170   22.5370 C.2   253  GLN253      0.2592
    108  O         -7.6280   25.4320   21.3660 O.2   253  GLN253     -0.2718
    109  CB       -10.1390   26.5940   23.0390 C.3   253  GLN253      0.0381
    110  CG        -9.7060   27.5430   21.9250 C.3   253  GLN253      0.0905
    111  CD       -10.4390   28.8550   21.9030 C.2   253  GLN253      0.2608
    112  OE1      -11.4170   29.0130   21.1760 O.2   253  GLN253     -0.2717
    113  NE2       -9.9670   29.8170   22.6980 N.am  253  GLN253     -0.0878
    114  N         -7.1810   25.5750   23.5630 N.am  254  PHE254     -0.1976
    115  CA        -5.7560   25.7520   23.3370 C.3   254  PHE254      0.1639
    116  C         -5.1330   24.4860   22.7500 C.2   254  PHE254      0.2290
    117  O         -4.1920   24.5620   21.9550 O.2   254  PHE254     -0.2864
    118  CB        -5.0500   26.1560   24.6360 C.3   254  PHE254      0.0560
    119  CG        -4.9880   27.6500   24.8520 C.ar  254  PHE254     -0.0200
    120  CD1       -6.1540   28.4080   24.9320 C.ar  254  PHE254     -0.0042
    121  CD2       -3.7630   28.3020   24.9380 C.ar  254  PHE254     -0.0042
    122  CE1       -6.1010   29.7860   25.0900 C.ar  254  PHE254     -0.0003
    123  CE2       -3.6970   29.6840   25.0970 C.ar  254  PHE254     -0.0003
    124  CZ        -4.8690   30.4290   25.1720 C.ar  254  PHE254     -0.0000
    125  N          4.1500   29.3740   14.6610 N.3   267  ARG267     -0.1245
    126  CA         3.8950   30.4440   15.6280 C.3   267  ARG267      0.1563
    127  C          4.9770   30.6190   16.6850 C.2   267  ARG267      0.2260
    128  O          5.2090   31.7370   17.1580 O.2   267  ARG267     -0.2867
    129  CB         2.5320   30.2220   16.3100 C.3   267  ARG267      0.0307
    130  CG         1.8450   31.5040   16.7830 C.3   267  ARG267      0.0489
    131  CD         0.3440   31.2700   17.0050 C.3   267  ARG267      0.2205
    132  NE        -0.3680   32.4750   17.4280 N.pl3 267  ARG267     -0.0865
    133  CZ        -0.2310   33.0660   18.6140 C.cat 267  ARG267      0.5346
    134  NH1        0.5970   32.5640   19.5280 N.pl3 267  ARG267      0.1354
    135  NH2       -0.9140   34.1730   18.8850 N.pl3 267  ARG267      0.1354
    136  N          2.7450   35.5320   26.1200 N.3   303  HIS303     -0.1226
    137  CA         1.3350   35.2150   26.3490 C.3   303  HIS303      0.1752
    138  C          1.0620   33.7230   26.5150 C.2   303  HIS303      0.2596
    139  O          1.9500   32.8940   26.3130 O.2   303  HIS303     -0.2718
    140  CB         0.5190   35.7470   25.1680 C.3   303  HIS303      0.0759
    141  CG         0.8030   37.1800   24.8280 C.ar  303  HIS303      0.0818
    142  ND1        0.1910   38.2350   25.4690 N.ar  303  HIS303     -0.2268
    143  CD2        1.6230   37.7300   23.8980 C.ar  303  HIS303      0.1154
    144  CE1        0.6180   39.3730   24.9480 C.ar  303  HIS303      0.1986
    145  NE2        1.4870   39.0950   23.9910 N.ar  303  HIS303     -0.2212
    146  N         -0.1730   33.3680   26.8700 N.am  304  ASP304     -0.1960
    147  CA        -0.4750   31.9580   27.0460 C.3   304  ASP304      0.1840
    148  C         -0.3390   31.1600   25.7530 C.2   304  ASP304      0.2622
    149  O          0.1280   30.0240   25.7820 O.2   304  ASP304     -0.2715
    150  CB        -1.8590   31.7630   27.6790 C.3   304  ASP304      0.1450
    151  CG        -2.9450   32.5330   26.9790 C.2   304  ASP304      0.3671
    152  OD1       -4.0670   32.5970   27.5330 O.co2 304  ASP304     -0.2456
    153  OD2       -2.6930   33.0690   25.8860 O.co2 304  ASP304     -0.2456
    154  N         -0.7100   31.7530   24.6150 N.am  305  THR305     -0.1951
    155  CA        -0.5910   31.0430   23.3400 C.3   305  THR305      0.1897
    156  C          0.8800   30.7140   23.0410 C.2   305  THR305      0.2313
    157  O          1.1860   29.7060   22.4150 O.2   305  THR305     -0.2863
    158  CB        -1.1680   31.8790   22.1770 C.3   305  THR305      0.1794
    159  OG1       -0.4380   33.1120   22.0590 O.3   305  THR305     -0.2208
    160  CG2       -2.6490   32.1670   22.4220 C.3   305  THR305      0.0378
@<TRIPOS>BOND
     1    66    65    2
     2    65    64    1
     3    63    64    1
     4    64    67    1
     5    67    68    1
     6    68    69    1
     7   125   126    1
     8   126   129    1
     9   126   127    1
    10    69    70    1
    11   129   130    1
    12   127   128    2
    13    70    71    1
    14   130   131    1
    15   131   132    1
    16   132   133    2
    17   133   135    1
    18   133   134    1
    19   112   111    2
    20    43    42    1
    21   108   107    2
    22   111   110    1
    23   111   113   am
    24   110   109    1
    25   117   116    2
    26   159   158    1
    27   158   160    1
    28   158   155    1
    29   157   156    2
    30   107   106    1
    31   107   114   am
    32    42    41    1
    33   116   115    1
    34   106   109    1
    35   106   105    1
    36   156   155    1
    37    50    49   ar
    38    41    40    1
    39   115   114    1
    40   115   118    1
    41   155   154    1
    42   143   145   ar
    43   143   141   ar
    44   145   144   ar
    45    51    49   ar
    46    49    48    1
    47    85    84    1
    48    44    45    1
    49   154   148   am
    50   118   119    1
    51    40    39    1
    52    39    36    1
    53   141   140    1
    54   141   142   ar
    55   119   120   ar
    56   119   121   ar
    57   120   122   ar
    58   121   123   ar
    59   144   142   ar
    60   122   124   ar
    61   123   124   ar
    62   140   137    1
    63    45    48    1
    64    45    46    1
    65    76    77    1
    66    76    73    1
    67    33    32    1
    68    84    83    1
    69   148   149    2
    70   148   147    1
    71    31    30    2
    72    62    60    1
    73   153   151   ar
    74    32    34    1
    75    32    29    1
    76    36    35    1
    77    36    37    1
    78   136   137    1
    79   139   138    2
    80    82    83    1
    81    82    79    1
    82   137   138    1
    83    72    73    1
    84    98    97    2
    85    30    35   am
    86    30    29    1
    87   138   146   am
    88    46    47    2
    89    73    74    1
    90    78    79    1
    91    78    74   am
    92   146   147    1
    93    37    38    2
    94    60    61    1
    95    60    59    2
    96   151   152   ar
    97   151   150    1
    98   147   150    1
    99    29    28    1
   100    79    80    1
   101    74    75    2
   102    97    96    1
   103    59    58    1
   104   103   101   ar
   105   103   104   ar
   106    96    95    1
   107    96    99    1
   108   101   100   ar
   109    80    81    2
   110   104   102   ar
   111    26    25    1
   112   100    99    1
   113   100   102   ar
   114    57    58    1
   115    57    56    1
   116    52    53    1
   117    25    24    2
   118    25    27    1
   119    24    23    1
   120     8     7    1
   121     8     9    2
   122    11     9    1
   123     6     5    1
   124     6     7    1
   125    56    53    1
   126     2     5    1
   127     2     1    1
   128     2     3    1
   129    23    22    1
   130    54    53    1
   131    54    55    2
   132    16    13    1
   133     9    10    1
   134    12     3   am
   135    12    13    1
   136    90    91    1
   137    90    87    1
   138    91    92    1
   139     3     4    2
   140    13    14    1
   141    86    87    1
   142    92    94   ar
   143    92    93   ar
   144    22    21    1
   145    87    88    1
   146    21    18    1
   147    14    15    2
   148    88    89    2
   149    19    18    1
   150    19    20    2
   151    18    17    1
