@<TRIPOS>MOLECULE
tmp/1dkuB00.pdb
 91 87 0 0 0
SMALL
GASTEIGER

@<TRIPOS>ATOM
      1  N         18.9600   59.3290   58.8060 N.3   133  GLN133     -0.1245
      2  CA        18.2910   60.0160   59.9000 C.3   133  GLN133      0.1566
      3  C         17.5340   61.1970   59.2640 C.2   133  GLN133      0.2260
      4  O         16.4820   61.5770   59.7170 O.2   133  GLN133     -0.2867
      5  CB        19.3370   60.4880   60.9220 C.3   133  GLN133      0.0367
      6  CG        18.7860   61.1450   62.1170 C.3   133  GLN133      0.0905
      7  CD        19.8540   61.5580   63.1150 C.2   133  GLN133      0.2608
      8  OE1       20.9840   61.8780   62.7620 O.2   133  GLN133     -0.2717
      9  NE2       19.4740   61.6000   64.3720 N.am  133  GLN133     -0.0878
     10  N         14.0350   61.3150   65.2530 N.3   140  ILE140     -0.1231
     11  CA        14.6790   60.0250   65.2090 C.3   140  ILE140      0.1692
     12  C         16.0350   60.1310   65.8890 C.2   140  ILE140      0.2592
     13  O         16.8040   61.0470   65.5880 O.2   140  ILE140     -0.2718
     14  CB        14.8310   59.4940   63.7690 C.3   140  ILE140      0.0266
     15  CG1       15.9700   58.4900   63.7010 C.3   140  ILE140      0.0019
     16  CG2       15.0750   60.5880   62.8170 C.3   140  ILE140      0.0020
     17  CD1       15.9010   57.5940   62.5450 C.3   140  ILE140      0.0001
     18  N         16.2560   59.2510   66.8740 N.am  141  ASP141     -0.1960
     19  CA        17.4960   59.1380   67.6410 C.3   141  ASP141      0.1840
     20  C         18.3350   58.0110   67.0470 C.2   141  ASP141      0.2622
     21  O         17.8610   56.9000   66.8950 O.2   141  ASP141     -0.2715
     22  CB        17.1720   58.8060   69.0860 C.3   141  ASP141      0.1450
     23  CG        16.6200   59.9540   69.7970 C.2   141  ASP141      0.3671
     24  OD1       17.2530   60.9980   69.7110 O.co2 141  ASP141     -0.2456
     25  OD2       15.5500   59.8570   70.4030 O.co2 141  ASP141     -0.2456
     26  N         19.5770   58.2900   66.6870 N.am  142  HIS142     -0.1973
     27  CA        20.4450   57.2860   66.0740 C.3   142  HIS142      0.1656
     28  C         21.5820   56.8880   67.0450 C.2   142  HIS142      0.2291
     29  O         22.4820   57.6880   67.3000 O.2   142  HIS142     -0.2864
     30  CB        20.9990   57.8930   64.7810 C.3   142  HIS142      0.0771
     31  CG        21.8940   56.9850   64.0040 C.ar  142  HIS142      0.0820
     32  ND1       22.7290   57.4570   63.0210 N.ar  142  HIS142     -0.2267
     33  CD2       22.0680   55.6450   64.0400 C.ar  142  HIS142      0.1154
     34  CE1       23.3800   56.4380   62.4810 C.ar  142  HIS142      0.1986
     35  NE2       23.0000   55.3290   63.0820 N.ar  142  HIS142     -0.2212
     36  N         24.8080   54.5230   68.3350 N.3   144  MET144     -0.1245
     37  CA        25.9910   53.8600   67.7530 C.3   144  MET144      0.1570
     38  C         26.2520   52.6050   68.5480 C.2   144  MET144      0.2261
     39  O         26.1330   52.6130   69.7680 O.2   144  MET144     -0.2867
     40  CB        27.2490   54.6910   67.9140 C.3   144  MET144      0.0387
     41  CG        27.1270   56.1190   67.4880 C.3   144  MET144      0.0595
     42  SD        26.7420   56.0980   65.7550 S.3   144  MET144     -0.1393
     43  CE        28.4300   55.7320   65.0490 C.3   144  MET144      0.0692
     44  N         36.2320   55.1780   64.0540 N.3   176  LYS176     -0.1245
     45  CA        35.6340   55.3790   65.3620 C.3   176  LYS176      0.1561
     46  C         36.1130   54.3050   66.3370 C.2   176  LYS176      0.2260
     47  O         36.3560   54.5830   67.5110 O.2   176  LYS176     -0.2867
     48  CB        34.1150   55.4300   65.2670 C.3   176  LYS176      0.0271
     49  CG        33.6130   56.7750   64.6830 C.3   176  LYS176      0.0035
     50  CD        32.1500   56.6870   64.2510 C.3   176  LYS176      0.0206
     51  CE        31.5250   58.0860   63.9390 C.3   176  LYS176      0.1093
     52  NZ        30.0340   57.9570   63.5800 N.3   176  LYS176     -0.1314
     53  N         14.7270   63.0030   78.9540 N.3   289  GLN289     -0.1231
     54  CA        16.0790   63.3210   79.4190 C.3   289  GLN289      0.1698
     55  C         17.0040   63.3290   78.1770 C.2   289  GLN289      0.2593
     56  O         16.6400   62.8180   77.1380 O.2   289  GLN289     -0.2718
     57  CB        16.5780   62.2400   80.4100 C.3   289  GLN289      0.0381
     58  CG        15.5820   61.8310   81.5400 C.3   289  GLN289      0.0905
     59  CD        16.1640   60.7240   82.4770 C.2   289  GLN289      0.2608
     60  OE1       17.3690   60.3580   82.3940 O.2   289  GLN289     -0.2717
     61  NE2       15.3190   60.1990   83.3740 N.am  289  GLN289     -0.0878
     62  N         18.1960   63.9020   78.2900 N.am  290  SER290     -0.1938
     63  CA        19.1590   63.9800   77.1970 C.3   290  SER290      0.2055
     64  C         19.6130   62.5750   76.8240 C.2   290  SER290      0.2643
     65  O         19.8710   61.7490   77.7160 O.2   290  SER290     -0.2714
     66  CB        20.3660   64.8210   77.6310 C.3   290  SER290      0.2130
     67  OG        21.3940   64.7990   76.6580 O.3   290  SER290     -0.2179
     68  N         19.6130   62.2860   75.5140 N.am  291  VAL291     -0.1963
     69  CA        20.0440   60.9860   74.9830 C.3   291  VAL291      0.1727
     70  C         21.5360   61.0440   74.6020 C.2   291  VAL291      0.2616
     71  O         22.2280   60.0180   74.5670 O.2   291  VAL291     -0.2715
     72  CB        19.1500   60.5500   73.7470 C.3   291  VAL291      0.0290
     73  CG1       19.9240   59.6030   72.8070 C.3   291  VAL291      0.0023
     74  CG2       17.8720   59.8280   74.2490 C.3   291  VAL291      0.0023
     75  N         22.0500   62.2590   74.4230 N.am  292  SER292     -0.1950
     76  CA        23.4420   62.4200   74.0210 C.3   292  SER292      0.1924
     77  C         24.3970   61.7710   74.9830 C.2   292  SER292      0.2314
     78  O         25.5470   61.4760   74.6210 O.2   292  SER292     -0.2863
     79  CB        23.8140   63.8880   73.8740 C.3   292  SER292      0.2116
     80  OG        23.1490   64.4320   72.7490 O.3   292  SER292     -0.2180
     81  N         26.2660   58.4990   74.1370 N.3   295  PHE295     -0.1241
     82  CA        27.3260   58.5370   73.1500 C.3   295  PHE295      0.1605
     83  C         28.5950   58.7950   73.9180 C.2   295  PHE295      0.2264
     84  O         28.6630   58.2490   75.0600 O.2   295  PHE295     -0.2867
     85  CB        27.0630   59.6480   72.1240 C.3   295  PHE295      0.0534
     86  CG        25.8500   59.4060   71.3070 C.ar  295  PHE295     -0.0203
     87  CD1       25.9440   58.7700   70.0840 C.ar  295  PHE295     -0.0042
     88  CD2       24.6030   59.7730   71.7790 C.ar  295  PHE295     -0.0042
     89  CE1       24.7980   58.4920   69.3330 C.ar  295  PHE295     -0.0003
     90  CE2       23.4380   59.4970   71.0320 C.ar  295  PHE295     -0.0003
     91  CZ        23.5350   58.8610   69.8090 C.ar  295  PHE295     -0.0000
@<TRIPOS>BOND
     1     1     2    1
     2     3     4    2
     3     3     2    1
     4     2     5    1
     5     5     6    1
     6     6     7    1
     7    34    32   ar
     8    34    35   ar
     9    17    15    1
    10     8     7    2
    11    16    14    1
    12    32    31   ar
    13    35    33   ar
    14     7     9   am
    15    52    51    1
    16    15    14    1
    17    14    11    1
    18    51    50    1
    19    31    33   ar
    20    31    30    1
    21    44    45    1
    22    50    49    1
    23    49    48    1
    24    30    27    1
    25    43    42    1
    26    11    10    1
    27    11    12    1
    28    48    45    1
    29    45    46    1
    30    13    12    2
    31    42    41    1
    32    12    18   am
    33    27    26    1
    34    27    28    1
    35    46    47    2
    36    26    20   am
    37    18    19    1
    38    21    20    2
    39    28    29    2
    40    20    19    1
    41    41    40    1
    42    19    22    1
    43    37    40    1
    44    37    36    1
    45    37    38    1
    46    38    39    2
    47    22    23    1
    48    89    91   ar
    49    89    87   ar
    50    24    23   ar
    51    23    25   ar
    52    91    90   ar
    53    87    86   ar
    54    90    88   ar
    55    86    88   ar
    56    86    85    1
    57    85    82    1
    58    80    79    1
    59    73    72    1
    60    82    83    1
    61    82    81    1
    62    72    74    1
    63    72    69    1
    64    79    76    1
    65    83    84    2
    66    76    75    1
    67    76    77    1
    68    75    70   am
    69    71    70    2
    70    70    69    1
    71    78    77    2
    72    69    68    1
    73    68    64   am
    74    67    66    1
    75    64    63    1
    76    64    65    2
    77    56    55    2
    78    63    66    1
    79    63    62    1
    80    55    62   am
    81    55    54    1
    82    53    54    1
    83    54    57    1
    84    57    58    1
    85    58    59    1
    86    60    59    2
    87    59    61   am
