@<TRIPOS>MOLECULE
tmp/1dkyB00.pdb
 162 155 0 0 0
SMALL
GASTEIGER

@<TRIPOS>ATOM
      1  N         60.5560   39.5550    2.0030 N.3    13  ILE13      -0.1231
      2  CA        60.8710   38.5130    1.0340 C.3    13  ILE13       0.1692
      3  C         59.5990   37.9730    0.4420 C.2    13  ILE13       0.2592
      4  O         58.5450   38.0430    1.0690 O.2    13  ILE13      -0.2718
      5  CB        61.6520   37.3290    1.6650 C.3    13  ILE13       0.0266
      6  CG1       60.8020   36.6170    2.7140 C.3    13  ILE13       0.0019
      7  CG2       62.9590   37.8160    2.2610 C.3    13  ILE13       0.0020
      8  CD1       61.4170   35.3720    3.2290 C.3    13  ILE13       0.0001
      9  N         59.6960   37.4640   -0.7770 N.am   14  GLU14      -0.1966
     10  CA        58.5440   36.8970   -1.4460 C.3    14  GLU14       0.1733
     11  C         58.3370   35.5040   -0.9060 C.2    14  GLU14       0.2617
     12  O         59.3090   34.7660   -0.7550 O.2    14  GLU14      -0.2715
     13  CB        58.8070   36.7870   -2.9290 C.3    14  GLU14       0.0429
     14  CG        57.7590   35.9870   -3.6340 C.3    14  GLU14       0.1163
     15  CD        57.9370   35.9970   -5.1200 C.2    14  GLU14       0.3649
     16  OE1       59.0340   36.3820   -5.5890 O.co2  14  GLU14      -0.2457
     17  OE2       56.9770   35.6170   -5.8220 O.co2  14  GLU14      -0.2457
     18  N         57.0810   35.1390   -0.6480 N.am   15  THR15      -0.1937
     19  CA        56.7440   33.8140   -0.1290 C.3    15  THR15       0.2028
     20  C         55.7140   33.0730   -0.9870 C.2    15  THR15       0.2642
     21  O         55.3040   33.5360   -2.0560 O.2    15  THR15      -0.2714
     22  CB        56.2350   33.8750    1.3330 C.3    15  THR15       0.1808
     23  OG1       55.0980   34.7450    1.4210 O.3    15  THR15      -0.2208
     24  CG2       57.3270   34.3700    2.2620 C.3    15  THR15       0.0379
     25  N         55.3000   31.9080   -0.5100 N.am   16  MET16      -0.1962
     26  CA        54.3380   31.0890   -1.2230 C.3    16  MET16       0.1736
     27  C         53.0900   31.9050   -1.5270 C.2    16  MET16       0.2617
     28  O         52.5770   32.6150   -0.6570 O.2    16  MET16      -0.2715
     29  CB        53.9820   29.8540   -0.3860 C.3    16  MET16       0.0427
     30  CG        53.0640   28.8400   -1.0860 C.3    16  MET16       0.0599
     31  SD        52.6000   27.4260   -0.0380 S.3    16  MET16      -0.1393
     32  CE        51.7420   28.2540    1.2700 C.3    16  MET16       0.0692
     33  N         52.6460   31.8350   -2.7790 N.am   17  GLY17      -0.1955
     34  CA        51.4560   32.5510   -3.2000 C.3    17  GLY17       0.1869
     35  C         51.7500   33.6800   -4.1630 C.2    17  GLY17       0.2309
     36  O         50.8700   34.1030   -4.9220 O.2    17  GLY17      -0.2863
     37  N         56.2530   38.9240    2.1600 N.3    21  THR21      -0.1218
     38  CA        56.2850   39.0640    3.6020 C.3    21  THR21       0.1862
     39  C         57.3110   40.1360    3.9840 C.2    21  THR21       0.2287
     40  O         58.4890   40.0870    3.6110 O.2    21  THR21      -0.2866
     41  CB        56.6320   37.7510    4.2900 C.3    21  THR21       0.1770
     42  OG1       55.7890   36.7140    3.7790 O.3    21  THR21      -0.2211
     43  CG2       56.4290   37.8620    5.7920 C.3    21  THR21       0.0375
     44  N         62.7020   36.2950   10.8940 N.3    36  GLN36      -0.1231
     45  CA        61.4780   35.5240   10.9970 C.3    36  GLN36       0.1698
     46  C         61.8400   34.1750   10.4210 C.2    36  GLN36       0.2592
     47  O         62.6630   34.0910    9.5000 O.2    36  GLN36      -0.2718
     48  CB        60.3840   36.1740   10.1530 C.3    36  GLN36       0.0381
     49  CG        58.9590   35.9420   10.6360 C.3    36  GLN36       0.0905
     50  CD        57.9280   36.7020    9.8020 C.2    36  GLN36       0.2608
     51  OE1       57.0730   36.1010    9.1790 O.2    36  GLN36      -0.2717
     52  NE2       58.0540   38.0170    9.7340 N.am   36  GLN36      -0.0878
     53  N         61.2780   33.1200   11.0030 N.am   37  VAL37      -0.1966
     54  CA        61.5520   31.7680   10.5370 C.3    37  VAL37       0.1727
     55  C         60.4960   31.3040    9.5440 C.2    37  VAL37       0.2616
     56  O         59.2800   31.3810    9.7990 O.2    37  VAL37      -0.2715
     57  CB        61.6100   30.7470   11.6850 C.3    37  VAL37       0.0290
     58  CG1       62.2370   29.4570   11.2010 C.3    37  VAL37       0.0023
     59  CG2       62.3810   31.3000   12.8520 C.3    37  VAL37       0.0023
     60  N         60.9780   30.8660    8.3950 N.am   38  PHE38      -0.1960
     61  CA        60.1390   30.3590    7.3380 C.3    38  PHE38       0.1771
     62  C         60.4800   28.8740    7.1650 C.2    38  PHE38       0.2620
     63  O         61.3270   28.3400    7.8750 O.2    38  PHE38      -0.2715
     64  CB        60.4100   31.1330    6.0520 C.3    38  PHE38       0.0574
     65  CG        60.0990   32.5950    6.1440 C.ar   38  PHE38      -0.0200
     66  CD1       60.9960   33.4770    6.7320 C.ar   38  PHE38      -0.0042
     67  CD2       58.9220   33.1010    5.6270 C.ar   38  PHE38      -0.0042
     68  CE1       60.7250   34.8470    6.7970 C.ar   38  PHE38      -0.0003
     69  CE2       58.6480   34.4630    5.6910 C.ar   38  PHE38      -0.0003
     70  CZ        59.5550   35.3320    6.2780 C.ar   38  PHE38      -0.0000
     71  N         59.8430   28.2360    6.1940 N.am   39  SER39      -0.1936
     72  CA        60.0320   26.8230    5.9070 C.3    39  SER39       0.2055
     73  C         59.8740   26.5820    4.3960 C.2    39  SER39       0.2644
     74  O         59.9370   27.5180    3.5980 O.2    39  SER39      -0.2714
     75  CB        59.0020   26.0140    6.7000 C.3    39  SER39       0.2130
     76  OG        59.1970   24.6190    6.5500 O.3    39  SER39      -0.2179
     77  N         59.6630   25.3330    4.0040 N.am   40  THR40      -0.1936
     78  CA        59.5260   24.9790    2.5980 C.3    40  THR40       0.2028
     79  C         58.0820   24.7470    2.2520 C.2    40  THR40       0.2642
     80  O         57.2370   24.5830    3.1290 O.2    40  THR40      -0.2714
     81  CB        60.3240   23.7060    2.2560 C.3    40  THR40       0.1808
     82  OG1       60.1540   22.7360    3.2980 O.3    40  THR40      -0.2208
     83  CG2       61.8000   24.0330    2.1340 C.3    40  THR40       0.0379
     84  N         57.7830   24.7370    0.9680 N.am   41  ALA41      -0.1963
     85  CA        56.4100   24.5450    0.5540 C.3    41  ALA41       0.1728
     86  C         56.1510   23.1070    0.1120 C.2    41  ALA41       0.2616
     87  O         55.0740   22.5500    0.3750 O.2    41  ALA41      -0.2715
     88  CB        56.0710   25.5260   -0.5580 C.3    41  ALA41       0.0334
     89  N         57.1630   22.5040   -0.5180 N.am   42  GLU42      -0.1977
     90  CA        57.0830   21.1430   -1.0390 C.3    42  GLU42       0.1602
     91  C         57.8660   20.0920   -0.2460 C.2    42  GLU42       0.2287
     92  O         58.8480   20.3960    0.4440 O.2    42  GLU42      -0.2864
     93  CB        57.5120   21.1270   -2.5060 C.3    42  GLU42       0.0415
     94  CG        56.7170   22.1590   -3.2970 C.3    42  GLU42       0.1163
     95  CD        55.3050   21.7520   -3.6230 C.2    42  GLU42       0.3649
     96  OE1       54.9260   20.6420   -3.2450 O.co2  42  GLU42      -0.2457
     97  OE2       54.5620   22.5550   -4.2690 O.co2  42  GLU42      -0.2457
     98  N         61.8530   19.2920   -0.2680 N.3    45  GLN45      -0.1245
     99  CA        62.4270   20.5090   -0.8510 C.3    45  GLN45       0.1566
    100  C         63.8400   20.6830   -0.3030 C.2    45  GLN45       0.2260
    101  O         64.0510   20.7300    0.9030 O.2    45  GLN45      -0.2867
    102  CB        61.5670   21.7450   -0.5540 C.3    45  GLN45       0.0367
    103  CG        61.8100   22.9220   -1.5330 C.3    45  GLN45       0.0905
    104  CD        60.8760   24.1080   -1.3070 C.2    45  GLN45       0.2608
    105  OE1       59.7250   23.9450   -0.9010 O.2    45  GLN45      -0.2717
    106  NE2       61.3740   25.3070   -1.5710 N.am   45  GLN45      -0.0878
    107  N         66.1840   23.2610   -1.3720 N.3    47  ALA47      -0.1231
    108  CA        66.6840   24.6430   -1.3340 C.3    47  ALA47       0.1694
    109  C         65.5660   25.6630   -1.3580 C.2    47  ALA47       0.2592
    110  O         64.4740   25.3830   -1.8470 O.2    47  ALA47      -0.2718
    111  CB        67.5900   24.9060   -2.5120 C.3    47  ALA47       0.0304
    112  N         65.8370   26.8440   -0.8210 N.am   48  VAL48      -0.1966
    113  CA        64.8480   27.9160   -0.8270 C.3    48  VAL48       0.1727
    114  C         65.5280   29.0890   -1.4680 C.2    48  VAL48       0.2617
    115  O         66.7390   29.2930   -1.2990 O.2    48  VAL48      -0.2715
    116  CB        64.4480   28.3710    0.5540 C.3    48  VAL48       0.0290
    117  CG1       63.5130   27.3620    1.1920 C.3    48  VAL48       0.0023
    118  CG2       65.7020   28.6230    1.3850 C.3    48  VAL48       0.0023
    119  N         64.7560   29.8400   -2.2380 N.am   49  SER49      -0.1936
    120  CA        65.2720   31.0220   -2.9120 C.3    49  SER49       0.2055
    121  C         64.7990   32.2100   -2.1000 C.2    49  SER49       0.2642
    122  O         63.6150   32.3520   -1.8280 O.2    49  SER49      -0.2714
    123  CB        64.7160   31.1120   -4.3360 C.3    49  SER49       0.2130
    124  OG        65.3920   32.0980   -5.0930 O.3    49  SER49      -0.2179
    125  N         65.7400   32.9720   -1.5820 N.am   50  ILE50      -0.1977
    126  CA        65.4100   34.1590   -0.8210 C.3    50  ILE50       0.1596
    127  C         65.3570   35.3350   -1.7950 C.2    50  ILE50       0.2287
    128  O         66.3950   35.8220   -2.2590 O.2    50  ILE50      -0.2864
    129  CB        66.4720   34.4140    0.2400 C.3    50  ILE50       0.0276
    130  CG1       66.6040   33.1660    1.1260 C.3    50  ILE50       0.0022
    131  CG2       66.1490   35.6790    1.0230 C.3    50  ILE50       0.0022
    132  CD1       65.2710   32.6090    1.5820 C.3    50  ILE50       0.0001
    133  N         57.2240   18.6770    3.7670 N.3    79  ARG79      -0.1231
    134  CA        56.9940   20.1160    3.6020 C.3    79  ARG79       0.1694
    135  C         56.4500   20.7760    4.8770 C.2    79  ARG79       0.2592
    136  O         55.5800   20.2240    5.5630 O.2    79  ARG79      -0.2718
    137  CB        56.0320   20.3650    2.4610 C.3    79  ARG79       0.0321
    138  CG        54.6450   19.8020    2.7200 C.3    79  ARG79       0.0489
    139  CD        53.6200   20.2530    1.6980 C.3    79  ARG79       0.2205
    140  NE        52.3230   19.6210    1.9440 N.pl3  79  ARG79      -0.0865
    141  CZ        51.3810   20.1000    2.7590 C.cat  79  ARG79       0.5346
    142  NH1       51.5450   21.2480    3.3980 N.pl3  79  ARG79       0.1354
    143  NH2       50.2470   19.4280    2.9190 N.pl3  79  ARG79       0.1354
    144  N         56.9540   21.9680    5.1830 N.am   80  GLY80      -0.1957
    145  CA        56.5140   22.6880    6.3700 C.3    80  GLY80       0.1869
    146  C         57.3250   22.3650    7.6100 C.2    80  GLY80       0.2309
    147  O         57.0860   22.9270    8.6820 O.2    80  GLY80      -0.2863
    148  N         63.9720   27.5910    8.2780 N.3    84  ILE84      -0.1245
    149  CA        64.9110   28.4900    7.6270 C.3    84  ILE84       0.1561
    150  C         64.6660   29.8540    8.1890 C.2    84  ILE84       0.2260
    151  O         63.5450   30.3200    8.1950 O.2    84  ILE84      -0.2867
    152  CB        64.6670   28.5970    6.1580 C.3    84  ILE84       0.0252
    153  CG1       64.6910   27.2080    5.5090 C.3    84  ILE84       0.0019
    154  CG2       65.6830   29.5430    5.5740 C.3    84  ILE84       0.0019
    155  CD1       66.0110   26.4990    5.6130 C.3    84  ILE84       0.0001
    156  N         65.3320   33.8350    7.9500 N.3    86  VAL86      -0.1245
    157  CA        65.7610   34.9170    7.0780 C.3    86  VAL86       0.1561
    158  C         65.9420   36.0810    7.9980 C.2    86  VAL86       0.2260
    159  O         65.0840   36.3240    8.8460 O.2    86  VAL86      -0.2867
    160  CB        64.7170   35.2680    6.0630 C.3    86  VAL86       0.0252
    161  CG1       65.2670   36.2490    5.1090 C.3    86  VAL86       0.0019
    162  CG2       64.3090   34.0270    5.3160 C.3    86  VAL86       0.0019
@<TRIPOS>BOND
     1    17    15   ar
     2    16    15   ar
     3    15    14    1
     4   124   123    1
     5    36    35    2
     6   123   120    1
     7    97    95   ar
     8    35    34    1
     9    14    13    1
    10    95    94    1
    11    95    96   ar
    12    94    93    1
    13    34    33    1
    14    13    10    1
    15   120   119    1
    16   120   121    1
    17    33    27   am
    18   111   108    1
    19    93    90    1
    20   128   127    2
    21   119   114   am
    22   121   122    2
    23   121   125   am
    24    21    20    2
    25   110   109    2
    26   127   126    1
    27   125   126    1
    28   106   104   am
    29   103   104    1
    30   103   102    1
    31    27    26    1
    32    27    28    2
    33   114   115    2
    34   114   113    1
    35    10    11    1
    36    10     9    1
    37   107   108    1
    38   109   108    1
    39   109   112   am
    40   104   105    2
    41    26    25    1
    42    26    29    1
    43    30    29    1
    44    30    31    1
    45    90    89    1
    46    90    91    1
    47    20    25   am
    48    20    19    1
    49    11    12    2
    50    11    18   am
    51    99   102    1
    52    99   100    1
    53    99    98    1
    54   113   112    1
    55   113   116    1
    56   126   129    1
    57     9     3   am
    58    18    19    1
    59    88    85    1
    60    89    86   am
    61   100   101    2
    62    91    92    2
    63    19    22    1
    64    31    32    1
    65    86    87    2
    66    86    85    1
    67   129   131    1
    68   129   130    1
    69     3     2    1
    70     3     4    2
    71   116   117    1
    72   116   118    1
    73    85    84    1
    74    84    79   am
    75     2     5    1
    76     2     1    1
    77   130   132    1
    78    22    23    1
    79    22    24    1
    80     5     7    1
    81     5     6    1
    82   139   140    1
    83   139   138    1
    84   140   141    2
    85    83    81    1
    86    37    38    1
    87    79    78    1
    88    79    80    2
    89    81    78    1
    90    81    82    1
    91   137   138    1
    92   137   134    1
    93    78    77    1
    94     6     8    1
    95   141   143    1
    96   141   142    1
    97    74    73    2
    98    38    39    1
    99    38    41    1
   100   134   133    1
   101   134   135    1
   102    40    39    2
   103    42    41    1
   104    77    73   am
   105    41    43    1
   106    73    72    1
   107   135   144   am
   108   135   136    2
   109   161   160    1
   110   144   145    1
   111   162   160    1
   112   153   155    1
   113   153   152    1
   114   154   152    1
   115    67    69   ar
   116    67    65   ar
   117    69    70   ar
   118    72    71    1
   119    72    75    1
   120    64    65    1
   121    64    61    1
   122   160   157    1
   123    65    66   ar
   124   152   149    1
   125    71    62   am
   126    70    68   ar
   127   145   146    1
   128    76    75    1
   129    66    68   ar
   130   157   156    1
   131   157   158    1
   132    62    61    1
   133    62    63    2
   134    61    60    1
   135   146   147    2
   136   149   150    1
   137   149   148    1
   138   158   159    2
   139   150   151    2
   140    60    55   am
   141    51    50    2
   142    47    46    2
   143    55    56    2
   144    55    54    1
   145    52    50   am
   146    50    49    1
   147    48    49    1
   148    48    45    1
   149    46    45    1
   150    46    53   am
   151    54    53    1
   152    54    57    1
   153    44    45    1
   154    58    57    1
   155    57    59    1
