@<TRIPOS>MOLECULE
tmp/1dliA01.pdb
 208 201 0 0 0
SMALL
GASTEIGER

@<TRIPOS>ATOM
      1  N        -25.3420    8.9230   57.1400 N.3   141  GLU141     -0.1231
      2  CA       -25.2490   10.2870   57.6170 C.3   141  GLU141      0.1699
      3  C        -24.2800   11.0700   56.7100 C.2   141  GLU141      0.2592
      4  O        -23.2150   10.5650   56.3530 O.2   141  GLU141     -0.2718
      5  CB       -24.8010   10.2820   59.0780 C.3   141  GLU141      0.0402
      6  CG       -24.5110   11.6600   59.6580 C.3   141  GLU141      0.1161
      7  CD       -25.7250   12.6250   59.6410 C.2   141  GLU141      0.3649
      8  OE1      -26.8730   12.1680   59.8570 O.co2 141  GLU141     -0.2457
      9  OE2      -25.5210   13.8550   59.4300 O.co2 141  GLU141     -0.2457
     10  N        -24.6530   12.2870   56.3180 N.am  142  PHE142     -0.1962
     11  CA       -23.7770   13.0800   55.4580 C.3   142  PHE142      0.1771
     12  C        -23.2070   14.3590   56.0920 C.2   142  PHE142      0.2619
     13  O        -22.5970   15.1740   55.3960 O.2   142  PHE142     -0.2715
     14  CB       -24.5080   13.4130   54.1330 C.3   142  PHE142      0.0574
     15  CG       -25.0290   12.1910   53.4210 C.ar  142  PHE142     -0.0200
     16  CD1      -24.1490   11.2690   52.8560 C.ar  142  PHE142     -0.0042
     17  CD2      -26.3840   11.9310   53.3600 C.ar  142  PHE142     -0.0042
     18  CE1      -24.6180   10.1010   52.2450 C.ar  142  PHE142     -0.0003
     19  CE2      -26.8730   10.7540   52.7500 C.ar  142  PHE142     -0.0003
     20  CZ       -25.9870    9.8410   52.1960 C.ar  142  PHE142     -0.0000
     21  N        -23.3580   14.5220   57.4020 N.am  143  LEU143     -0.1963
     22  CA       -22.8750   15.7250   58.0820 C.3   143  LEU143      0.1728
     23  C        -21.3730   15.9430   58.1520 C.2   143  LEU143      0.2616
     24  O        -20.5870   14.9970   58.1710 O.2   143  LEU143     -0.2715
     25  CB       -23.4300   15.7850   59.5120 C.3   143  LEU143      0.0311
     26  CG       -22.9030   14.7970   60.5570 C.3   143  LEU143      0.0022
     27  CD1      -21.5720   15.2790   61.1310 C.3   143  LEU143      0.0001
     28  CD2      -23.9470   14.6570   61.6670 C.3   143  LEU143      0.0001
     29  N        -20.9940   17.2160   58.2060 N.am  144  ARG144     -0.1963
     30  CA       -19.5980   17.6330   58.3180 C.3   144  ARG144      0.1729
     31  C        -19.3810   18.0940   59.7440 C.2   144  ARG144      0.2616
     32  O        -20.2780   18.6790   60.3460 O.2   144  ARG144     -0.2715
     33  CB       -19.3150   18.7860   57.3690 C.3   144  ARG144      0.0348
     34  CG       -19.4600   18.3780   55.9260 C.3   144  ARG144      0.0492
     35  CD       -19.5570   19.5640   55.0230 C.3   144  ARG144      0.2205
     36  NE       -20.7000   20.3920   55.3580 N.pl3 144  ARG144     -0.0865
     37  CZ       -21.0800   21.4340   54.6340 C.cat 144  ARG144      0.5346
     38  NH1      -20.4000   21.7750   53.5300 N.pl3 144  ARG144      0.1354
     39  NH2      -22.1480   22.1340   55.0030 N.pl3 144  ARG144      0.1354
     40  N        -18.2080   17.8230   60.3040 N.am  145  GLU145     -0.1977
     41  CA       -17.9740   18.2580   61.6690 C.3   145  GLU145      0.1602
     42  C        -17.9280   19.7780   61.6180 C.2   145  GLU145      0.2287
     43  O        -17.5480   20.3520   60.6020 O.2   145  GLU145     -0.2864
     44  CB       -16.6830   17.6630   62.2080 C.3   145  GLU145      0.0415
     45  CG       -16.6210   16.1570   62.0270 C.3   145  GLU145      0.1163
     46  CD       -15.3010   15.5590   62.4920 C.2   145  GLU145      0.3649
     47  OE1      -14.4110   16.3310   62.9480 O.co2 145  GLU145     -0.2457
     48  OE2      -15.1640   14.3180   62.4020 O.co2 145  GLU145     -0.2457
     49  N        -23.0270    5.8590   50.9040 N.3   204  LYS204     -0.1245
     50  CA       -22.1730    6.5210   51.8640 C.3   204  LYS204      0.1561
     51  C        -20.6920    6.3750   51.5200 C.2   204  LYS204      0.2260
     52  O        -19.9600    7.3710   51.4320 O.2   204  LYS204     -0.2867
     53  CB       -22.4110    5.9600   53.2620 C.3   204  LYS204      0.0271
     54  CG       -21.3250    6.3890   54.2570 C.3   204  LYS204      0.0035
     55  CD       -21.5740    7.7720   54.8360 C.3   204  LYS204      0.0206
     56  CE       -21.0900    8.8990   53.9630 C.3   204  LYS204      0.1093
     57  NZ       -20.9950   10.1670   54.7520 N.3   204  LYS204     -0.1314
     58  N        -18.2210    9.5890   50.1440 N.3   208  ASN208     -0.1240
     59  CA       -16.9890   10.0020   50.8040 C.3   208  ASN208      0.1653
     60  C        -15.7660    9.6780   49.9480 C.2   208  ASN208      0.2266
     61  O        -14.8070   10.4360   49.9140 O.2   208  ASN208     -0.2867
     62  CB       -16.8690    9.3070   52.1480 C.3   208  ASN208      0.1155
     63  CG       -17.6540    9.9900   53.1950 C.2   208  ASN208      0.2627
     64  OD1      -18.3500   10.9510   52.9080 O.2   208  ASN208     -0.2716
     65  ND2      -17.5470    9.5300   54.4210 N.am  208  ASN208     -0.0877
     66  N        -15.3870   12.4320   47.4380 N.3   211  LEU211     -0.1245
     67  CA       -14.8480   13.6240   48.0710 C.3   211  LEU211      0.1561
     68  C        -13.3380   13.4430   48.3040 C.2   211  LEU211      0.2260
     69  O        -12.5520   14.3890   48.1100 O.2   211  LEU211     -0.2867
     70  CB       -15.5580   13.8920   49.3940 C.3   211  LEU211      0.0270
     71  CG       -17.0440   14.3040   49.2760 C.3   211  LEU211      0.0019
     72  CD1      -17.6910   14.2400   50.6790 C.3   211  LEU211      0.0001
     73  CD2      -17.1590   15.7520   48.6780 C.3   211  LEU211      0.0001
     74  N        -10.1710   15.7870   46.6350 N.3   215  VAL215     -0.1245
     75  CA        -9.0360   16.3790   47.3700 C.3   215  VAL215      0.1561
     76  C         -7.7130   15.8290   46.8360 C.2   215  VAL215      0.2260
     77  O         -6.7930   16.5770   46.5810 O.2   215  VAL215     -0.2867
     78  CB        -9.0850   16.0400   48.8920 C.3   215  VAL215      0.0252
     79  CG1       -7.7950   16.5280   49.6020 C.3   215  VAL215      0.0019
     80  CG2      -10.3000   16.6680   49.5160 C.3   215  VAL215      0.0019
     81  N        -14.7650   22.8210   47.2820 N.3   249  TYR249     -0.1227
     82  CA       -14.0050   21.6860   47.7840 C.3   249  TYR249      0.1736
     83  C        -12.7640   21.4130   46.9190 C.2   249  TYR249      0.2595
     84  O        -12.5340   20.2780   46.4980 O.2   249  TYR249     -0.2718
     85  CB       -14.9550   20.4910   47.7390 C.3   249  TYR249      0.0548
     86  CG       -14.7540   19.4770   48.8300 C.ar  249  TYR249     -0.0200
     87  CD1      -15.2550   19.6980   50.1170 C.ar  249  TYR249     -0.0009
     88  CD2      -14.0570   18.2840   48.5740 C.ar  249  TYR249     -0.0009
     89  CE1      -15.0660   18.7570   51.1200 C.ar  249  TYR249      0.0417
     90  CE2      -13.8670   17.3570   49.5460 C.ar  249  TYR249      0.0417
     91  CZ       -14.3690   17.5840   50.8240 C.ar  249  TYR249      0.1957
     92  OH       -14.1700   16.6240   51.7860 O.3   249  TYR249     -0.2866
     93  N        -11.9500   22.4350   46.6720 N.am  250  ASN250     -0.1960
     94  CA       -10.8110   22.2540   45.8010 C.3   250  ASN250      0.1819
     95  C         -9.5570   22.9470   46.3000 C.2   250  ASN250      0.2621
     96  O         -8.7480   23.3810   45.4960 O.2   250  ASN250     -0.2715
     97  CB       -11.1580   22.8340   44.4330 C.3   250  ASN250      0.1195
     98  CG       -11.4510   24.3300   44.5140 C.2   250  ASN250      0.2630
     99  OD1      -11.6170   24.8640   45.6150 O.2   250  ASN250     -0.2716
    100  ND2      -11.5220   25.0080   43.3610 N.am  250  ASN250     -0.0877
    101  N         -9.4050   23.0450   47.6160 N.am  251  ASN251     -0.1972
    102  CA        -8.2630   23.7190   48.2000 C.3   251  ASN251      0.1688
    103  C         -7.1920   22.7540   48.6660 C.2   251  ASN251      0.2292
    104  O         -7.4170   21.9660   49.5820 O.2   251  ASN251     -0.2864
    105  CB        -8.7450   24.5740   49.3710 C.3   251  ASN251      0.1181
    106  CG        -7.6470   25.4170   49.9720 C.2   251  ASN251      0.2629
    107  OD1       -6.8730   26.0510   49.2510 O.2   251  ASN251     -0.2716
    108  ND2       -7.5820   25.4460   51.3070 N.am  251  ASN251     -0.0877
    109  N         -3.9470   20.7920   50.2260 N.3   253  SER253     -0.1217
    110  CA        -3.6420   20.6350   51.6340 C.3   253  SER253      0.1889
    111  C         -2.5230   19.6140   51.7270 C.2   253  SER253      0.2288
    112  O         -1.9530   19.2630   50.7040 O.2   253  SER253     -0.2866
    113  CB        -4.8920   20.1370   52.3670 C.3   253  SER253      0.2089
    114  OG        -5.2640   18.8480   51.8970 O.3   253  SER253     -0.2183
    115  N         -3.0910   16.6980   52.6710 N.3   255  GLY255     -0.1210
    116  CA        -3.7930   15.4380   52.4700 C.3   255  GLY255      0.1956
    117  C         -5.1930   15.4760   53.0480 C.2   255  GLY255      0.2612
    118  O         -5.4800   16.3650   53.8570 O.2   255  GLY255     -0.2717
    119  N         -6.0690   14.5420   52.6490 N.am  256  TYR256     -0.1962
    120  CA        -7.4090   14.5470   53.2210 C.3   256  TYR256      0.1771
    121  C         -7.3760   13.8840   54.5850 C.2   256  TYR256      0.2620
    122  O         -6.7930   12.7990   54.7630 O.2   256  TYR256     -0.2715
    123  CB        -8.4390   13.8970   52.2900 C.3   256  TYR256      0.0574
    124  CG        -8.1560   12.4910   51.8080 C.ar  256  TYR256     -0.0198
    125  CD1       -8.4100   11.3900   52.6220 C.ar  256  TYR256     -0.0009
    126  CD2       -7.6590   12.2600   50.5270 C.ar  256  TYR256     -0.0009
    127  CE1       -8.1910   10.1100   52.1880 C.ar  256  TYR256      0.0417
    128  CE2       -7.4280   10.9600   50.0820 C.ar  256  TYR256      0.0417
    129  CZ        -7.6990    9.8970   50.9250 C.ar  256  TYR256      0.1957
    130  OH        -7.4650    8.6060   50.5220 O.3   256  TYR256     -0.2866
    131  N         -7.9460   14.5770   55.5620 N.am  257  GLY257     -0.1940
    132  CA        -7.9620   14.0730   56.9240 C.3   257  GLY257      0.2014
    133  C         -9.3560   13.9640   57.5260 C.2   257  GLY257      0.2639
    134  O        -10.3630   13.9100   56.8140 O.2   257  GLY257     -0.2714
    135  N         -9.4090   13.9220   58.8520 N.am  258  GLY258     -0.1939
    136  CA       -10.6850   13.8090   59.5270 C.3   258  GLY258      0.2014
    137  C        -10.9580   12.3630   59.8400 C.2   258  GLY258      0.2639
    138  O        -10.2330   11.4680   59.4430 O.2   258  GLY258     -0.2714
    139  N        -12.0480   12.1220   60.5340 N.am  259  TYR259     -0.1959
    140  CA       -12.3690   10.7740   60.9060 C.3   259  TYR259      0.1771
    141  C        -12.8580    9.8950   59.7470 C.2   259  TYR259      0.2620
    142  O        -12.4410    8.7410   59.6010 O.2   259  TYR259     -0.2715
    143  CB       -13.4100   10.8290   62.0240 C.3   259  TYR259      0.0574
    144  CG       -13.7960    9.4810   62.6030 C.ar  259  TYR259     -0.0198
    145  CD1      -12.8250    8.4900   62.8500 C.ar  259  TYR259     -0.0009
    146  CD2      -15.1300    9.2030   62.9220 C.ar  259  TYR259     -0.0009
    147  CE1      -13.1770    7.2540   63.4030 C.ar  259  TYR259      0.0417
    148  CE2      -15.4960    7.9790   63.4750 C.ar  259  TYR259      0.0417
    149  CZ       -14.5190    7.0040   63.7100 C.ar  259  TYR259      0.1957
    150  OH       -14.8940    5.7880   64.2250 O.3   259  TYR259     -0.2866
    151  N        -13.7030   10.4650   58.9070 N.am  260  CYS260     -0.1954
    152  CA       -14.3270    9.7290   57.8250 C.3   260  CYS260      0.1843
    153  C        -13.6150    9.4420   56.5100 C.2   260  CYS260      0.2625
    154  O        -13.5050    8.2800   56.1070 O.2   260  CYS260     -0.2714
    155  CB       -15.6750   10.3840   57.5220 C.3   260  CYS260      0.0997
    156  SG       -16.7130   10.4530   59.0000 S.3   260  CYS260     -0.0797
    157  N        -13.1330   10.4680   55.8320 N.am  261  LEU261     -0.1977
    158  CA       -12.5380   10.2080   54.5420 C.3   261  LEU261      0.1596
    159  C        -11.4320    9.1670   54.5810 C.2   261  LEU261      0.2287
    160  O        -11.4030    8.2640   53.7430 O.2   261  LEU261     -0.2864
    161  CB       -12.0770   11.5240   53.8980 C.3   261  LEU261      0.0297
    162  CG       -13.1630   12.1810   53.0210 C.3   261  LEU261      0.0022
    163  CD1      -14.4740   12.2790   53.8130 C.3   261  LEU261      0.0001
    164  CD2      -12.6760   13.5640   52.5190 C.3   261  LEU261      0.0001
    165  N         -7.6250   19.0050   61.9230 N.3   319  MET319     -0.1230
    166  CA        -7.7270   18.3040   60.6500 C.3   319  MET319      0.1702
    167  C         -8.2920   19.0510   59.4270 C.2   319  MET319      0.2592
    168  O         -8.1200   18.6020   58.3040 O.2   319  MET319     -0.2718
    169  CB        -8.4400   16.9740   60.8900 C.3   319  MET319      0.0401
    170  CG        -9.9040   17.0820   61.2690 C.3   319  MET319      0.0596
    171  SD       -10.9100   17.1820   59.7610 S.3   319  MET319     -0.1393
    172  CE       -12.5590   16.8380   60.5000 C.3   319  MET319      0.0692
    173  N         -8.9410   20.1920   59.6440 N.am  320  LYS320     -0.1980
    174  CA        -9.4750   21.0200   58.5640 C.3   320  LYS320      0.1596
    175  C         -9.7530   22.4100   59.1290 C.2   320  LYS320      0.2287
    176  O         -9.6650   22.6210   60.3490 O.2   320  LYS320     -0.2864
    177  CB       -10.7740   20.4490   58.0160 C.3   320  LYS320      0.0298
    178  CG       -11.9620   20.5390   58.9760 C.3   320  LYS320      0.0038
    179  CD       -13.2750   20.1330   58.2760 C.3   320  LYS320      0.0206
    180  CE       -14.4720   20.2460   59.2020 C.3   320  LYS320      0.1093
    181  NZ       -15.7180   19.8830   58.4860 N.3   320  LYS320     -0.1314
    182  N         -1.1080   23.4610   57.7030 N.3   380  ASN380     -0.1225
    183  CA        -2.0290   22.9610   56.6790 C.3   380  ASN380      0.1785
    184  C         -2.8810   24.1250   56.1150 C.2   380  ASN380      0.2597
    185  O         -3.1160   24.2290   54.8980 O.2   380  ASN380     -0.2718
    186  CB        -2.9170   21.8720   57.2700 C.3   380  ASN380      0.1169
    187  CG        -3.6440   21.0820   56.2080 C.2   380  ASN380      0.2627
    188  OD1       -3.0340   20.6510   55.2410 O.2   380  ASN380     -0.2716
    189  ND2       -4.9530   20.8770   56.3870 N.am  380  ASN380     -0.0877
    190  N         -3.3450   25.0100   56.9940 N.am  381  ARG381     -0.1979
    191  CA        -4.0820   26.1930   56.5470 C.3   381  ARG381      0.1597
    192  C         -3.4660   27.4310   57.1670 C.2   381  ARG381      0.2287
    193  O         -3.2830   27.5210   58.3810 O.2   381  ARG381     -0.2864
    194  CB        -5.5560   26.1110   56.9020 C.3   381  ARG381      0.0334
    195  CG        -6.3810   25.3270   55.8980 C.3   381  ARG381      0.0492
    196  CD        -6.1380   23.8320   55.9350 C.3   381  ARG381      0.2205
    197  NE        -6.9080   23.2210   54.8540 N.pl3 381  ARG381     -0.0865
    198  CZ        -6.4910   23.0840   53.5930 C.cat 381  ARG381      0.5346
    199  NH1       -5.2720   23.4990   53.2470 N.pl3 381  ARG381      0.1354
    200  NH2       -7.3190   22.5880   52.6620 N.pl3 381  ARG381      0.1354
    201  N        -11.9010   24.7560   54.1430 N.3   402  ASP402     -0.1239
    202  CA       -11.8400   23.3000   54.0350 C.3   402  ASP402      0.1674
    203  C        -10.4560   22.7410   54.3490 C.2   402  ASP402      0.2266
    204  O         -9.8530   23.2060   55.3400 O.2   402  ASP402     -0.2867
    205  CB       -12.2750   22.8620   52.6390 C.3   402  ASP402      0.1410
    206  CG       -13.6120   23.4630   52.2360 C.2   402  ASP402      0.3668
    207  OD1      -14.5590   23.4160   53.0540 O.co2 402  ASP402     -0.2456
    208  OD2      -13.7040   23.9870   51.1060 O.co2 402  ASP402     -0.2456
@<TRIPOS>BOND
     1   100    98   am
     2    97    98    1
     3    97    94    1
     4    98    99    2
     5    96    95    2
     6    94    95    1
     7    94    93    1
     8    95   101   am
     9    84    83    2
    10    77    76    2
    11    74    75    1
    12    93    83   am
    13    76    75    1
    14    83    82    1
    15    81    82    1
    16    75    78    1
    17    66    67    1
    18   101   102    1
    19    85    82    1
    20    85    86    1
    21    67    68    1
    22    67    70    1
    23    69    68    2
    24   102   103    1
    25   102   105    1
    26    88    86   ar
    27    88    90   ar
    28   103   104    2
    29    73    71    1
    30    86    87   ar
    31    78    80    1
    32    78    79    1
    33   107   106    2
    34    71    70    1
    35    71    72    1
    36   105   106    1
    37    90    91   ar
    38    61    60    2
    39    60    59    1
    40   106   108   am
    41   128   126   ar
    42   128   129   ar
    43    87    89   ar
    44    58    59    1
    45   109   110    1
    46   130   129    1
    47   126   124   ar
    48   112   111    2
    49    59    62    1
    50    91    89   ar
    51    91    92    1
    52    49    50    1
    53   129   127   ar
    54   208   206   ar
    55    52    51    2
    56    51    50    1
    57   110   111    1
    58   110   113    1
    59   124   123    1
    60   124   125   ar
    61    50    53    1
    62   114   113    1
    63    62    63    1
    64   127   125   ar
    65    20    18   ar
    66    20    19   ar
    67   206   205    1
    68   206   207   ar
    69    18    16   ar
    70   123   120    1
    71   116   115    1
    72   116   117    1
    73   164   162    1
    74   205   202    1
    75   119   117   am
    76   119   120    1
    77   200   198    1
    78    19    17   ar
    79    16    15   ar
    80    64    63    2
    81   162   163    1
    82   162   161    1
    83   117   118    2
    84    63    65   am
    85   120   121    1
    86   199   198    1
    87    53    54    1
    88    17    15   ar
    89    15    14    1
    90    38    37    1
    91   198   197    2
    92   160   159    2
    93   161   158    1
    94    56    57    1
    95    56    55    1
    96   202   201    1
    97   202   203    1
    98    14    11    1
    99    54    55    1
   100   203   204    2
   101   158   159    1
   102   158   157    1
   103   121   122    2
   104   121   131   am
   105    37    39    1
   106    37    36    2
   107   197   196    1
   108   185   184    2
   109    35    36    1
   110    35    34    1
   111   188   187    2
   112    13    12    2
   113    11    12    1
   114    11    10    1
   115   131   132    1
   116   157   153   am
   117   195   196    1
   118   195   194    1
   119    34    33    1
   120    12    21   am
   121   154   153    2
   122   184   183    1
   123   184   190   am
   124   187   189   am
   125   187   186    1
   126    10     3   am
   127     4     3    2
   128   153   152    1
   129   191   194    1
   130   191   190    1
   131   191   192    1
   132   183   186    1
   133   183   182    1
   134     3     2    1
   135   134   133    2
   136   132   133    1
   137     1     2    1
   138   192   193    2
   139    33    30    1
   140    21    22    1
   141   155   152    1
   142   155   156    1
   143   133   135   am
   144     2     5    1
   145   152   151    1
   146   177   174    1
   147   177   178    1
   148    22    23    1
   149    22    25    1
   150    23    24    2
   151    23    29   am
   152    29    30    1
   153   179   178    1
   154   179   180    1
   155   168   167    2
   156    30    31    1
   157   181   180    1
   158   174   175    1
   159   174   173    1
   160   135   136    1
   161   151   141   am
   162     5     6    1
   163   175   176    2
   164   167   173   am
   165   167   166    1
   166     9     7   ar
   167   138   137    2
   168    25    26    1
   169   136   137    1
   170   142   141    2
   171     7     6    1
   172     7     8   ar
   173    31    40   am
   174    31    32    2
   175   141   140    1
   176   171   172    1
   177   171   170    1
   178   137   139   am
   179    40    41    1
   180   139   140    1
   181    26    27    1
   182    26    28    1
   183    43    42    2
   184   166   169    1
   185   166   165    1
   186   169   170    1
   187   140   143    1
   188    42    41    1
   189    41    44    1
   190   143   144    1
   191    45    44    1
   192    45    46    1
   193    48    46   ar
   194    46    47   ar
   195   144   145   ar
   196   144   146   ar
   197   145   147   ar
   198   146   148   ar
   199   147   149   ar
   200   148   149   ar
   201   149   150    1
