@<TRIPOS>MOLECULE
tmp/1dlkD01.pdb
 177 174 0 0 0
SMALL
GASTEIGER

@<TRIPOS>ATOM
      1  N        106.3410   75.7940   11.3730 N.3    26  PHE26      -0.1227
      2  CA       105.6400   76.3400   12.5680 C.3    26  PHE26       0.1736
      3  C        104.7880   75.2630   13.2670 C.2    26  PHE26       0.2595
      4  O        104.3960   75.4630   14.4170 O.2    26  PHE26      -0.2718
      5  CB       104.7610   77.5220   12.1180 C.3    26  PHE26       0.0547
      6  CG       103.7150   77.2000   11.0910 C.ar   26  PHE26      -0.0202
      7  CD1      102.4570   76.8070   11.4670 C.ar   26  PHE26      -0.0042
      8  CD2      103.9580   77.2670    9.7460 C.ar   26  PHE26      -0.0042
      9  CE1      101.4490   76.5130   10.5520 C.ar   26  PHE26      -0.0003
     10  CE2      102.9940   77.0110    8.8040 C.ar   26  PHE26      -0.0003
     11  CZ       101.7080   76.6220    9.1910 C.ar   26  PHE26      -0.0000
     12  N        104.5120   74.1240   12.6350 N.am   27  CYS27      -0.1970
     13  CA       103.7470   73.0780   13.3310 C.3    27  CYS27       0.1712
     14  C        104.0820   71.7120   12.7010 C.2    27  CYS27       0.2296
     15  O        104.6010   71.6670   11.5930 O.2    27  CYS27      -0.2864
     16  CB       102.2070   73.3110   13.2400 C.3    27  CYS27       0.0983
     17  SG       101.5180   74.3450   14.5500 S.3    27  CYS27      -0.0798
     18  N         94.7820   75.0200   16.3520 N.3    42  HIS42      -0.1226
     19  CA        95.4440   76.2550   16.7590 C.3    42  HIS42       0.1752
     20  C         96.6630   76.5820   15.8880 C.2    42  HIS42       0.2596
     21  O         97.1450   77.7240   16.0380 O.2    42  HIS42      -0.2718
     22  CB        95.7220   76.3360   18.2490 C.3    42  HIS42       0.0759
     23  CG        97.0180   75.6630   18.5760 C.ar   42  HIS42       0.0818
     24  ND1       97.1680   74.3350   18.9780 N.ar   42  HIS42      -0.2268
     25  CD2       98.2290   76.2230   18.4850 C.ar   42  HIS42       0.1154
     26  CE1       98.4540   74.1460   19.1750 C.ar   42  HIS42       0.1986
     27  NE2       99.2390   75.2550   18.8450 N.ar   42  HIS42      -0.2212
     28  N         97.1450   75.7100   14.9900 N.am   43  CYS43      -0.1970
     29  CA        98.2820   76.0950   14.1460 C.3    43  CYS43       0.1712
     30  C         97.9180   77.1990   13.1740 C.2    43  CYS43       0.2296
     31  O         98.7840   77.7320   12.4750 O.2    43  CYS43      -0.2864
     32  CB        98.6950   74.7870   13.3520 C.3    43  CYS43       0.0983
     33  SG        99.5460   73.7190   14.5780 S.3    43  CYS43      -0.0798
     34  N         89.8380   79.4880   23.3380 N.3    82  LEU82      -0.1231
     35  CA        90.1140   79.8190   24.7290 C.3    82  LEU82       0.1693
     36  C         90.3580   78.4910   25.4930 C.2    82  LEU82       0.2593
     37  O         91.2070   78.4300   26.3490 O.2    82  LEU82      -0.2718
     38  CB        88.8810   80.4280   25.4360 C.3    82  LEU82       0.0284
     39  CG        89.1890   81.3240   26.6110 C.3    82  LEU82       0.0019
     40  CD1       88.0590   81.3970   27.5950 C.3    82  LEU82       0.0001
     41  CD2       90.5230   81.1430   27.3140 C.3    82  LEU82       0.0001
     42  N         89.4230   77.5570   25.3840 N.am   83  THR83      -0.1939
     43  CA        89.6140   76.3160   26.1790 C.3    83  THR83       0.2028
     44  C         90.6420   75.4130   25.4770 C.2    83  THR83       0.2642
     45  O         91.2380   74.5670   26.1290 O.2    83  THR83      -0.2714
     46  CB        88.3420   75.4690   26.2820 C.3    83  THR83       0.1808
     47  OG1       87.9630   75.1850   24.9430 O.3    83  THR83      -0.2208
     48  CG2       87.2700   76.2640   27.0310 C.3    83  THR83       0.0379
     49  N         90.8010   75.5850   24.1700 N.am   84  ILE84      -0.1977
     50  CA        91.7150   74.8820   23.3150 C.3    84  ILE84       0.1596
     51  C         91.2080   73.4290   23.1740 C.2    84  ILE84       0.2287
     52  O         91.9490   72.5130   22.7960 O.2    84  ILE84      -0.2864
     53  CB        93.2040   74.8950   23.7550 C.3    84  ILE84       0.0276
     54  CG1       93.6900   76.2530   24.2680 C.3    84  ILE84       0.0022
     55  CG2       94.0560   74.5190   22.5240 C.3    84  ILE84       0.0022
     56  CD1       95.0450   76.3530   24.9300 C.3    84  ILE84       0.0001
     57  N         96.2540   70.2010   36.0600 N.3   157  TRP157     -0.1241
     58  CA        95.6330   71.2230   35.2480 C.3   157  TRP157      0.1605
     59  C         94.2020   71.5780   35.6410 C.2   157  TRP157      0.2264
     60  O         93.5780   72.3910   34.9490 O.2   157  TRP157     -0.2867
     61  CB        95.7090   70.7620   33.7690 C.3   157  TRP157      0.0550
     62  CG        97.0590   70.8800   33.1170 C.ar  157  TRP157      0.0003
     63  CD1       97.8110   69.8950   32.5870 C.ar  157  TRP157      0.0946
     64  CD2       97.7890   72.1160   32.8640 C.ar  157  TRP157      0.0152
     65  NE1       98.9650   70.4010   32.0630 N.ar  157  TRP157     -0.2442
     66  CE2       98.9770   71.7650   32.2140 C.ar  157  TRP157      0.0810
     67  CE3       97.5070   73.4550   33.1670 C.ar  157  TRP157      0.0012
     68  CZ2       99.9520   72.7050   31.8370 C.ar  157  TRP157      0.0191
     69  CZ3       98.4600   74.3950   32.7780 C.ar  157  TRP157      0.0001
     70  CH2       99.6480   74.0260   32.1140 C.ar  157  TRP157      0.0015
     71  N         90.5820   72.6430   33.2850 N.3   160  LYS160     -0.1245
     72  CA        91.0280   72.8840   31.9000 C.3   160  LYS160      0.1561
     73  C         91.0790   71.5710   31.1320 C.2   160  LYS160      0.2260
     74  O         91.0010   71.5640   29.8940 O.2   160  LYS160     -0.2867
     75  CB        92.4180   73.5480   31.8720 C.3   160  LYS160      0.0271
     76  CG        92.4260   75.0090   32.3710 C.3   160  LYS160      0.0035
     77  CD        93.8640   75.3930   32.6840 C.3   160  LYS160      0.0206
     78  CE        94.0060   76.8580   33.0330 C.3   160  LYS160      0.1093
     79  NZ        93.2100   77.2150   34.2480 N.3   160  LYS160     -0.1314
     80  N         89.5440   68.6100   29.4370 N.3   162  LYS162     -0.1245
     81  CA        88.2640   68.1680   28.9700 C.3   162  LYS162      0.1561
     82  C         88.2540   66.7580   28.3970 C.2   162  LYS162      0.2260
     83  O         89.2850   66.1520   28.0860 O.2   162  LYS162     -0.2867
     84  CB        87.8100   69.0920   27.8240 C.3   162  LYS162      0.0271
     85  CG        87.8500   70.5990   28.0860 C.3   162  LYS162      0.0035
     86  CD        87.1150   70.9500   29.3640 C.3   162  LYS162      0.0206
     87  CE        86.9160   72.4750   29.4620 C.3   162  LYS162      0.1093
     88  NZ        86.7170   72.8330   30.9090 N.3   162  LYS162     -0.1314
     89  N        109.1250   66.8440   27.4090 N.3   174  SER174     -0.1202
     90  CA       107.8640   67.5600   27.1820 C.3   174  SER174      0.2020
     91  C        107.7750   68.0550   25.7680 C.2   174  SER174      0.2619
     92  O        108.7730   68.4160   25.1330 O.2   174  SER174     -0.2717
     93  CB       107.7890   68.8210   28.0980 C.3   174  SER174      0.2103
     94  OG       106.5850   69.5350   27.7850 O.3   174  SER174     -0.2182
     95  N        106.5670   68.0410   25.2470 N.am  175  SER175     -0.1937
     96  CA       106.2780   68.6910   23.9690 C.3   175  SER175      0.2055
     97  C        106.4680   70.2020   24.2360 C.2   175  SER175      0.2643
     98  O        106.3960   70.6460   25.3970 O.2   175  SER175     -0.2714
     99  CB       104.8190   68.3780   23.5740 C.3   175  SER175      0.2130
    100  OG       104.8570   67.0770   22.9440 O.3   175  SER175     -0.2179
    101  N        106.7580   70.9410   23.1850 N.am  176  CYS176     -0.1953
    102  CA       106.9390   72.3800   23.3440 C.3   176  CYS176      0.1843
    103  C        106.4420   73.1010   22.0900 C.2   176  CYS176      0.2625
    104  O        106.0380   72.4910   21.0970 O.2   176  CYS176     -0.2714
    105  CB       108.4290   72.6300   23.6360 C.3   176  CYS176      0.0997
    106  SG       108.8300   74.1780   24.4910 S.3   176  CYS176     -0.0797
    107  N        106.4680   74.4350   22.1180 N.am  177  MET177     -0.1963
    108  CA       106.0400   75.2580   20.9630 C.3   177  MET177      0.1736
    109  C        106.7090   74.7580   19.7240 C.2   177  MET177      0.2613
    110  O        107.9160   74.5810   19.6200 O.2   177  MET177     -0.2715
    111  CB       106.4100   76.7360   21.2690 C.3   177  MET177      0.0427
    112  CG       105.6150   77.3040   22.4390 C.3   177  MET177      0.0599
    113  SD       106.1770   77.1240   24.1650 S.3   177  MET177     -0.1393
    114  CE       107.9150   77.3790   23.9950 C.3   177  MET177      0.0692
    115  N        105.9460   74.6060   18.6590 N.am  178  GLY178     -0.2012
    116  CA       106.3340   74.1290   17.3610 C.3   178  GLY178      0.1506
    117  C        106.1270   72.5900   17.2640 C.3   178  GLY178      0.2054
    118  O        106.2070   72.1390   16.1500 O.3   178  GLY178     -0.2184
    119  N        103.2680   71.3380   18.1310 N.3   180  SER180     -0.1217
    120  CA       101.8450   71.2060   17.8860 C.3   180  SER180      0.1889
    121  C        101.4190   70.6880   16.5470 C.2   180  SER180      0.2288
    122  O        101.9490   71.0660   15.5370 O.2   180  SER180     -0.2866
    123  CB       101.0560   72.5290   17.8150 C.3   180  SER180      0.2089
    124  OG       101.2530   73.1030   19.1140 O.3   180  SER180     -0.2183
    125  N         99.5320   66.8480   19.3210 N.3   198  VAL198     -0.1231
    126  CA       100.1410   67.7620   20.2870 C.3   198  VAL198      0.1692
    127  C         99.2870   69.0670   20.2630 C.2   198  VAL198      0.2593
    128  O         99.0610   69.5720   19.1770 O.2   198  VAL198     -0.2718
    129  CB       101.6030   68.1140   19.9080 C.3   198  VAL198      0.0266
    130  CG1      102.1450   69.0660   20.9640 C.3   198  VAL198      0.0020
    131  CG2      102.4440   66.8010   19.8800 C.3   198  VAL198      0.0020
    132  N         98.9110   69.4920   21.4520 N.am  199  SER199     -0.1938
    133  CA        97.9690   70.5740   21.5580 C.3   199  SER199      0.2055
    134  C         98.4440   71.6750   22.4710 C.2   199  SER199      0.2643
    135  O         98.6450   72.7530   21.9150 O.2   199  SER199     -0.2714
    136  CB        96.5590   70.0620   21.8890 C.3   199  SER199      0.2130
    137  OG        95.6280   71.1440   21.9850 O.3   199  SER199     -0.2179
    138  N         98.6070   71.5660   23.7420 N.am  200  TRP200     -0.1959
    139  CA        98.9890   72.6970   24.5570 C.3   200  TRP200      0.1771
    140  C         99.6780   72.2080   25.7930 C.2   200  TRP200      0.2620
    141  O         99.7340   70.9850   26.0230 O.2   200  TRP200     -0.2715
    142  CB        97.7180   73.4730   24.9300 C.3   200  TRP200      0.0590
    143  CG        96.6670   72.8660   25.7870 C.ar  200  TRP200      0.0006
    144  CD1       95.6050   72.1770   25.2570 C.ar  200  TRP200      0.0946
    145  CD2       96.4680   72.8900   27.1930 C.ar  200  TRP200      0.0152
    146  NE1       94.7520   71.7940   26.2780 N.ar  200  TRP200     -0.2442
    147  CE2       95.2830   72.1920   27.4860 C.ar  200  TRP200      0.0810
    148  CE3       97.1630   73.4160   28.2870 C.ar  200  TRP200      0.0012
    149  CZ2       94.7930   72.0490   28.7750 C.ar  200  TRP200      0.0191
    150  CZ3       96.6930   73.2550   29.5760 C.ar  200  TRP200      0.0001
    151  CH2       95.5000   72.5780   29.8330 C.ar  200  TRP200      0.0015
    152  N        100.2150   73.1440   26.5420 N.am  201  GLY201     -0.1940
    153  CA       100.8620   72.8130   27.8220 C.3   201  GLY201      0.2014
    154  C        101.3760   74.1250   28.4220 C.2   201  GLY201      0.2640
    155  O        101.0810   75.2200   27.9350 O.2   201  GLY201     -0.2714
    156  N        102.2210   73.9700   29.4270 N.am  202  SER202     -0.1935
    157  CA       102.8880   75.0880   30.0790 C.3   202  SER202      0.2055
    158  C        103.7530   75.8330   29.0850 C.2   202  SER202      0.2643
    159  O        104.5040   75.2120   28.3010 O.2   202  SER202     -0.2714
    160  CB       103.7860   74.3980   31.1340 C.3   202  SER202      0.2130
    161  OG       104.7790   75.3250   31.5610 O.3   202  SER202     -0.2179
    162  N        103.8490   77.1520   29.2410 N.am  203  SER203     -0.1949
    163  CA       104.6510   77.9660   28.3160 C.3   203  SER203      0.1924
    164  C        106.1200   77.9080   28.7020 C.2   203  SER203      0.2314
    165  O        106.9500   78.3550   27.9090 O.2   203  SER203     -0.2863
    166  CB       104.1200   79.4220   28.2140 C.3   203  SER203      0.2116
    167  OG       104.2020   79.9570   29.5440 O.3   203  SER203     -0.2180
    168  N        107.3050   74.8410   29.0320 N.3   205  CYS205     -0.1235
    169  CA       107.5320   73.4570   28.6150 C.3   205  CYS205      0.1677
    170  C        108.1790   72.6200   29.7280 C.2   205  CYS205      0.2270
    171  O        109.0860   71.8220   29.5390 O.2   205  CYS205     -0.2867
    172  CB       108.3840   73.4000   27.3600 C.3   205  CYS205      0.0956
    173  SG       107.6180   74.3810   26.0270 S.3   205  CYS205     -0.0801
    174  N        102.0230   67.3920   29.1530 N.3   211  GLY211     -0.1225
    175  CA       101.6240   67.9990   27.9170 C.3   211  GLY211      0.1811
    176  C        100.1580   67.5820   27.7250 C.2   211  GLY211      0.2280
    177  O         99.7240   66.5130   28.2350 O.2   211  GLY211     -0.2866
@<TRIPOS>BOND
     1    10    11   ar
     2    10     8   ar
     3    11     9   ar
     4     8     6   ar
     5     9     7   ar
     6     6     7   ar
     7     6     5    1
     8     1     2    1
     9    15    14    2
    10     5     2    1
    11    31    30    2
    12     2     3    1
    13    12     3   am
    14    12    13    1
    15    14    13    1
    16    30    29    1
    17    16    13    1
    18    16    17    1
    19     3     4    2
    20    32    29    1
    21    32    33    1
    22    29    28    1
    23    17    33    1
    24    28    20   am
    25   122   121    2
    26    20    21    2
    27    20    19    1
    28   118   117    1
    29    18    19    1
    30   121   120    1
    31    19    22    1
    32   117   116    1
    33   116   115    1
    34   123   120    1
    35   123   124    1
    36   120   119    1
    37    22    23    1
    38    25    23   ar
    39    25    27   ar
    40    23    24   ar
    41   115   109   am
    42    27    26   ar
    43    24    26   ar
    44   128   127    2
    45   125   126    1
    46   110   109    2
    47   109   108    1
    48   131   129    1
    49   129   126    1
    50   129   130    1
    51   127   126    1
    52   127   132   am
    53   108   111    1
    54   108   107    1
    55   104   103    2
    56   111   112    1
    57   132   133    1
    58   133   136    1
    59   133   134    1
    60   136   137    1
    61   135   134    2
    62   103   107   am
    63   103   102    1
    64   112   113    1
    65   134   138   am
    66    55    53    1
    67    52    51    2
    68   100    99    1
    69    51    50    1
    70   101   102    1
    71   101    97   am
    72    50    53    1
    73    50    49    1
    74    34    35    1
    75   102   105    1
    76    99    96    1
    77   105   106    1
    78   138   139    1
    79    53    54    1
    80    96    97    1
    81    96    95    1
    82   114   113    1
    83    49    44   am
    84    97    98    2
    85    54    56    1
    86   106   173    1
    87   139   142    1
    88   139   140    1
    89    35    38    1
    90    35    36    1
    91   142   143    1
    92    47    46    1
    93    92    91    2
    94    95    91   am
    95   144   143   ar
    96   144   146   ar
    97    42    36   am
    98    42    43    1
    99    38    39    1
   100    44    45    2
   101    44    43    1
   102    36    37    2
   103    91    90    1
   104   143   145   ar
   105   140   141    2
   106   140   152   am
   107   173   172    1
   108    43    46    1
   109   146   147   ar
   110    46    48    1
   111   152   153    1
   112    39    41    1
   113    39    40    1
   114    90    89    1
   115    90    93    1
   116   145   147   ar
   117   145   148   ar
   118   172   169    1
   119   147   149   ar
   120   176   175    1
   121   176   177    2
   122    94    93    1
   123   153   154    1
   124    84    85    1
   125    84    81    1
   126   165   164    2
   127   175   174    1
   128   155   154    2
   129    85    86    1
   130    83    82    2
   131   166   163    1
   132   166   167    1
   133   148   150   ar
   134   159   158    2
   135   163   164    1
   136   163   162    1
   137    82    81    1
   138   154   156   am
   139   169   168    1
   140   169   170    1
   141   149   151   ar
   142    81    80    1
   143   158   162   am
   144   158   157    1
   145    86    87    1
   146   156   157    1
   147    87    88    1
   148   171   170    2
   149   150   151   ar
   150    74    73    2
   151   157   160    1
   152    73    72    1
   153   160   161    1
   154    68    70   ar
   155    68    66   ar
   156    75    72    1
   157    75    76    1
   158    72    71    1
   159    65    66   ar
   160    65    63   ar
   161    70    69   ar
   162    66    64   ar
   163    76    77    1
   164    63    62   ar
   165    77    78    1
   166    69    67   ar
   167    64    62   ar
   168    64    67   ar
   169    78    79    1
   170    62    61    1
   171    61    58    1
   172    60    59    2
   173    58    59    1
   174    58    57    1
