@<TRIPOS>MOLECULE
tmp/1dllA00.pdb
 93 90 0 0 0
SMALL
GASTEIGER

@<TRIPOS>ATOM
      1  N         21.2020    8.0370   85.4580 N.3   345  ASN345     -0.1225
      2  CA        21.9300    8.6820   86.5240 C.3   345  ASN345      0.1785
      3  C         21.7080   10.1620   86.7460 C.2   345  ASN345      0.2597
      4  O         21.3930   10.6300   87.8390 O.2   345  ASN345     -0.2718
      5  CB        23.4420    8.5610   86.1560 C.3   345  ASN345      0.1169
      6  CG        24.2750    9.3980   87.1240 C.2   345  ASN345      0.2627
      7  OD1       24.2940    9.0040   88.2810 O.2   345  ASN345     -0.2716
      8  ND2       24.8530   10.4920   86.6430 N.am  345  ASN345     -0.0877
      9  N         22.0190   10.9850   85.7410 N.am  346  ASN346     -0.1974
     10  CA        21.9170   12.4330   85.7800 C.3   346  ASN346      0.1688
     11  C         20.4970   12.9780   85.8240 C.2   346  ASN346      0.2292
     12  O         20.2810   14.1890   85.6750 O.2   346  ASN346     -0.2864
     13  CB        22.6320   13.0020   84.5330 C.3   346  ASN346      0.1181
     14  CG        21.9120   12.5880   83.2580 C.2   346  ASN346      0.2629
     15  OD1       20.9630   11.7980   83.3120 O.2   346  ASN346     -0.2716
     16  ND2       22.3390   13.0990   82.1100 N.am  346  ASN346     -0.0877
     17  N         17.9580   12.0910   83.7150 N.3   348  ASP348     -0.1239
     18  CA        17.2920   12.1760   82.4060 C.3   348  ASP348      0.1674
     19  C         16.1220   11.1850   82.4650 C.2   348  ASP348      0.2266
     20  O         16.3770    9.9750   82.5120 O.2   348  ASP348     -0.2867
     21  CB        18.2450   11.8580   81.2790 C.3   348  ASP348      0.1410
     22  CG        19.2830   12.9640   81.1500 C.2   348  ASP348      0.3668
     23  OD1       19.1610   14.0290   81.7890 O.co2 348  ASP348     -0.2456
     24  OD2       20.2280   12.7350   80.3970 O.co2 348  ASP348     -0.2456
     25  N         17.1550   13.1660   73.8090 N.3   396  THR396     -0.1203
     26  CA        17.5430   11.7690   73.8020 C.3   396  THR396      0.1994
     27  C         18.8180   11.5980   74.6460 C.2   396  THR396      0.2618
     28  O         19.5930   12.5230   74.8550 O.2   396  THR396     -0.2717
     29  CB        17.7790   11.0860   72.4490 C.3   396  THR396      0.1784
     30  OG1       18.8560   11.7170   71.7270 O.3   396  THR396     -0.2211
     31  CG2       16.5440   11.0710   71.5570 C.3   396  THR396      0.0376
     32  N         18.9360   10.3840   75.1450 N.am  397  HIS397     -0.1961
     33  CA        20.1090    9.9850   75.9190 C.3   397  HIS397      0.1787
     34  C         20.5880    8.6320   75.4100 C.2   397  HIS397      0.2620
     35  O         19.7690    7.7390   75.2280 O.2   397  HIS397     -0.2715
     36  CB        19.7970    9.8480   77.4050 C.3   397  HIS397      0.0785
     37  CG        21.0880    9.6010   78.1550 C.ar  397  HIS397      0.0821
     38  ND1       21.5690    8.3430   78.4010 N.ar  397  HIS397     -0.2267
     39  CD2       21.9780   10.4690   78.6720 C.ar  397  HIS397      0.1154
     40  CE1       22.6990    8.4390   79.0830 C.ar  397  HIS397      0.1986
     41  NE2       22.9820    9.7120   79.2570 N.ar  397  HIS397     -0.2212
     42  N         21.8880    8.4740   75.1590 N.am  398  ASN398     -0.1972
     43  CA        22.3850    7.2090   74.6520 C.3   398  ASN398      0.1688
     44  C         22.6790    6.2350   75.7990 C.2   398  ASN398      0.2292
     45  O         23.3530    6.5940   76.7760 O.2   398  ASN398     -0.2864
     46  CB        23.6680    7.4840   73.8460 C.3   398  ASN398      0.1181
     47  CG        24.2210    6.2240   73.2300 C.2   398  ASN398      0.2629
     48  OD1       25.0650    5.5690   73.8550 O.2   398  ASN398     -0.2716
     49  ND2       23.7400    5.8780   72.0480 N.am  398  ASN398     -0.0877
     50  N         14.0540   11.0960   76.3240 N.3   411  ILE411     -0.1245
     51  CA        14.0220   11.4680   77.7240 C.3   411  ILE411      0.1561
     52  C         13.5650   12.9070   77.8920 C.2   411  ILE411      0.2260
     53  O         13.3820   13.6090   76.8880 O.2   411  ILE411     -0.2867
     54  CB        15.4650   11.3530   78.2950 C.3   411  ILE411      0.0252
     55  CG1       16.4500   12.0840   77.3690 C.3   411  ILE411      0.0019
     56  CG2       15.9080    9.9200   78.4720 C.3   411  ILE411      0.0019
     57  CD1       16.5990   13.5600   77.6710 C.3   411  ILE411      0.0001
     58  N         15.1220   16.2070   80.0800 N.3   413  SER413     -0.1217
     59  CA        16.3120   16.5630   80.8600 C.3   413  SER413      0.1889
     60  C         16.5130   18.0550   80.9790 C.2   413  SER413      0.2288
     61  O         16.3430   18.7940   80.0060 O.2   413  SER413     -0.2866
     62  CB        17.5490   15.9720   80.1810 C.3   413  SER413      0.2089
     63  OG        18.7150   16.5310   80.8190 O.3   413  SER413     -0.2183
     64  N         19.3250   19.3980   81.4910 N.3   415  TRP415     -0.1227
     65  CA        20.6490   19.6900   80.9490 C.3   415  TRP415      0.1737
     66  C         20.6120   20.6560   79.7780 C.2   415  TRP415      0.2595
     67  O         21.4350   21.5750   79.6860 O.2   415  TRP415     -0.2718
     68  CB        21.3510   18.4080   80.5060 C.3   415  TRP415      0.0564
     69  CG        22.7230   18.6010   79.9250 C.ar  415  TRP415      0.0003
     70  CD1       23.9020   18.6870   80.6030 C.ar  415  TRP415      0.0946
     71  CD2       23.0560   18.7320   78.5330 C.ar  415  TRP415      0.0152
     72  NE1       24.9490   18.8530   79.7320 N.ar  415  TRP415     -0.2442
     73  CE2       24.4530   18.8740   78.4500 C.ar  415  TRP415      0.0810
     74  CE3       22.3070   18.7350   77.3600 C.ar  415  TRP415      0.0012
     75  CZ2       25.1170   19.0310   77.2340 C.ar  415  TRP415      0.0191
     76  CZ3       22.9690   18.8680   76.1470 C.ar  415  TRP415      0.0001
     77  CH2       24.3620   19.0180   76.0890 C.ar  415  TRP415      0.0015
     78  N         19.6150   20.5190   78.8880 N.am  416  TYR416     -0.1976
     79  CA        19.5090   21.3810   77.7300 C.3   416  TYR416      0.1639
     80  C         19.3900   22.8460   78.0540 C.2   416  TYR416      0.2290
     81  O         19.8120   23.6710   77.2340 O.2   416  TYR416     -0.2864
     82  CB        18.3030   20.9550   76.8670 C.3   416  TYR416      0.0560
     83  CG        18.4460   19.5570   76.2980 C.ar  416  TYR416     -0.0198
     84  CD1       19.3650   19.2680   75.3130 C.ar  416  TYR416     -0.0009
     85  CD2       17.6300   18.5390   76.7750 C.ar  416  TYR416     -0.0009
     86  CE1       19.4750   17.9870   74.7850 C.ar  416  TYR416      0.0417
     87  CE2       17.7220   17.2530   76.2600 C.ar  416  TYR416      0.0417
     88  CZ        18.6550   16.9930   75.2850 C.ar  416  TYR416      0.1957
     89  OH        18.7350   15.7040   74.7790 O.3   416  TYR416     -0.2866
     90  N         20.1960   18.5850   70.9810 N.3   426  GLY426     -0.1225
     91  CA        19.3590   17.4160   70.9480 C.3   426  GLY426      0.1811
     92  C         17.9420   17.5280   71.4640 C.2   426  GLY426      0.2280
     93  O         17.1900   16.5630   71.4180 O.2   426  GLY426     -0.2866
@<TRIPOS>BOND
     1    91    90    1
     2    91    92    1
     3    93    92    2
     4    31    29    1
     5    30    29    1
     6    49    47   am
     7    29    26    1
     8    47    46    1
     9    47    48    2
    10    26    25    1
    11    26    27    1
    12    46    43    1
    13    27    28    2
    14    27    32   am
    15    43    42    1
    16    43    44    1
    17    89    88    1
    18    86    88   ar
    19    86    84   ar
    20    32    33    1
    21    42    34   am
    22    35    34    2
    23    88    87   ar
    24    84    83   ar
    25    34    33    1
    26    44    45    2
    27    33    36    1
    28    77    76   ar
    29    77    75   ar
    30    76    74   ar
    31    87    85   ar
    32    83    85   ar
    33    83    82    1
    34    50    51    1
    35    82    79    1
    36    53    52    2
    37    81    80    2
    38    75    73   ar
    39    74    71   ar
    40    55    57    1
    41    55    54    1
    42    36    37    1
    43    51    52    1
    44    51    54    1
    45    79    80    1
    46    79    78    1
    47    37    38   ar
    48    37    39   ar
    49    54    56    1
    50    38    40   ar
    51    73    71   ar
    52    73    72   ar
    53    71    69   ar
    54    39    41   ar
    55    78    66   am
    56    40    41   ar
    57    67    66    2
    58    72    70   ar
    59    66    65    1
    60    69    68    1
    61    69    70   ar
    62    61    60    2
    63    58    59    1
    64    62    63    1
    65    62    59    1
    66    24    22   ar
    67    68    65    1
    68    59    60    1
    69    65    64    1
    70    22    21    1
    71    22    23   ar
    72    21    18    1
    73    16    14   am
    74    18    19    1
    75    18    17    1
    76    19    20    2
    77    14    15    2
    78    14    13    1
    79    13    10    1
    80     1     2    1
    81    12    11    2
    82     9    10    1
    83     9     3   am
    84    10    11    1
    85     5     2    1
    86     5     6    1
    87     2     3    1
    88     8     6   am
    89     3     4    2
    90     6     7    2
