@<TRIPOS>MOLECULE
tmp/1dlqB00.pdb
 142 133 0 0 0
SMALL
GASTEIGER

@<TRIPOS>ATOM
      1  N          8.0310   87.8610   97.6350 N.3    39  LEU39      -0.1245
      2  CA         7.8570   86.5240   97.0930 C.3    39  LEU39       0.1561
      3  C          9.0650   86.1010   96.2510 C.2    39  LEU39       0.2260
      4  O          9.5170   84.9650   96.3550 O.2    39  LEU39      -0.2867
      5  CB         6.5670   86.4390   96.2730 C.3    39  LEU39       0.0270
      6  CG         5.2730   86.5040   97.0930 C.3    39  LEU39       0.0019
      7  CD1        4.0700   86.5340   96.1590 C.3    39  LEU39       0.0001
      8  CD2        5.1940   85.2910   98.0340 C.3    39  LEU39       0.0001
      9  N         11.3500   82.9170   97.4710 N.3    43  ILE43      -0.1245
     10  CA        11.6150   81.8060   96.5660 C.3    43  ILE43       0.1561
     11  C         13.1010   81.4830   96.5570 C.2    43  ILE43       0.2260
     12  O         13.4980   80.3190   96.5550 O.2    43  ILE43      -0.2867
     13  CB        11.1700   82.1280   95.1180 C.3    43  ILE43       0.0252
     14  CG1        9.6370   82.1330   95.0340 C.3    43  ILE43       0.0019
     15  CG2       11.7830   81.1250   94.1390 C.3    43  ILE43       0.0019
     16  CD1        9.0830   82.5110   93.6680 C.3    43  ILE43       0.0001
     17  N         12.9320   77.5560   96.7400 N.3    48  ILE48      -0.1245
     18  CA        11.7150   76.9220   96.2510 C.3    48  ILE48       0.1561
     19  C         11.9390   76.5160   94.8000 C.2    48  ILE48       0.2260
     20  O         12.4390   77.3040   93.9970 O.2    48  ILE48      -0.2867
     21  CB        10.5230   77.8930   96.3400 C.3    48  ILE48       0.0252
     22  CG1       10.2510   78.2280   97.8080 C.3    48  ILE48       0.0019
     23  CG2        9.2990   77.2930   95.6800 C.3    48  ILE48       0.0019
     24  CD1        9.1470   79.2460   98.0150 C.3    48  ILE48       0.0001
     25  N          7.7880   72.9450   93.1990 N.3    52  GLU52      -0.1231
     26  CA         7.0720   73.4180   94.3720 C.3    52  GLU52       0.1699
     27  C          6.2340   74.6300   94.0260 C.2    52  GLU52       0.2592
     28  O          5.0670   74.7210   94.4210 O.2    52  GLU52      -0.2718
     29  CB         8.0400   73.7690   95.4980 C.3    52  GLU52       0.0402
     30  CG         8.7730   72.5710   96.0620 C.3    52  GLU52       0.1161
     31  CD         9.7280   72.9540   97.1700 C.2    52  GLU52       0.3649
     32  OE1       10.5610   73.8580   96.9540 O.co2  52  GLU52      -0.2457
     33  OE2        9.6530   72.3430   98.2550 O.co2  52  GLU52      -0.2457
     34  N          6.8260   75.5590   93.2830 N.am   53  TYR53      -0.1976
     35  CA         6.1120   76.7650   92.8790 C.3    53  TYR53       0.1639
     36  C          4.7800   76.4520   92.1850 C.2    53  TYR53       0.2290
     37  O          3.7270   76.9500   92.5940 O.2    53  TYR53      -0.2864
     38  CB         6.9670   77.6070   91.9300 C.3    53  TYR53       0.0560
     39  CG         6.2560   78.8530   91.4440 C.ar   53  TYR53      -0.0198
     40  CD1        6.0760   79.9530   92.2880 C.ar   53  TYR53      -0.0009
     41  CD2        5.7070   78.9080   90.1600 C.ar   53  TYR53      -0.0009
     42  CE1        5.3660   81.0740   91.8710 C.ar   53  TYR53       0.0417
     43  CE2        4.9920   80.0270   89.7310 C.ar   53  TYR53       0.0417
     44  CZ         4.8250   81.1060   90.5950 C.ar   53  TYR53       0.1957
     45  OH         4.1010   82.2070   90.1910 O.3    53  TYR53      -0.2866
     46  N          2.9220   73.9200   92.2730 N.3    55  ALA55      -0.1231
     47  CA         1.9630   73.2260   93.1230 C.3    55  ALA55       0.1694
     48  C          1.2540   74.3360   93.8900 C.2    55  ALA55       0.2593
     49  O          0.0560   74.2550   94.1720 O.2    55  ALA55      -0.2718
     50  CB         2.6880   72.2810   94.0870 C.3    55  ALA55       0.0304
     51  N          2.0100   75.3820   94.2170 N.am   56  GLY56      -0.1942
     52  CA         1.4420   76.5170   94.9260 C.3    56  GLY56       0.2014
     53  C          0.4240   77.2430   94.0540 C.2    56  GLY56       0.2638
     54  O         -0.6290   77.6740   94.5400 O.2    56  GLY56      -0.2714
     55  N          0.7410   77.3810   92.7660 N.am   57  VAL57      -0.1977
     56  CA        -0.1480   78.0370   91.8120 C.3    57  VAL57       0.1596
     57  C         -1.4160   77.1990   91.6210 C.2    57  VAL57       0.2287
     58  O         -2.5140   77.7370   91.4750 O.2    57  VAL57      -0.2864
     59  CB         0.5540   78.2340   90.4420 C.3    57  VAL57       0.0276
     60  CG1       -0.4400   78.7190   89.4000 C.3    57  VAL57       0.0022
     61  CG2        1.6790   79.2440   90.5870 C.3    57  VAL57       0.0022
     62  N         -2.6930   75.2300   93.8530 N.3    59  TYR59      -0.1227
     63  CA        -3.4560   75.3770   95.0840 C.3    59  TYR59       0.1736
     64  C         -4.2790   76.6580   95.0560 C.2    59  TYR59       0.2595
     65  O         -5.4120   76.6840   95.5340 O.2    59  TYR59      -0.2718
     66  CB        -2.5340   75.4330   96.2940 C.3    59  TYR59       0.0548
     67  CG        -3.2850   75.5790   97.5970 C.ar   59  TYR59      -0.0200
     68  CD1       -3.9010   74.4810   98.1910 C.ar   59  TYR59      -0.0009
     69  CD2       -3.4090   76.8230   98.2220 C.ar   59  TYR59      -0.0009
     70  CE1       -4.6240   74.6090   99.3820 C.ar   59  TYR59       0.0417
     71  CE2       -4.1330   76.9670   99.4170 C.ar   59  TYR59       0.0417
     72  CZ        -4.7390   75.8500   99.9940 C.ar   59  TYR59       0.1957
     73  OH        -5.4460   75.9600  101.1810 O.3    59  TYR59      -0.2866
     74  N         -3.7030   77.7300   94.5220 N.am   60  LEU60      -0.1980
     75  CA        -4.4230   78.9960   94.4440 C.3    60  LEU60       0.1596
     76  C         -5.6620   78.8990   93.5700 C.2    60  LEU60       0.2287
     77  O         -6.6980   79.4910   93.8910 O.2    60  LEU60      -0.2864
     78  CB        -3.5320   80.1010   93.8980 C.3    60  LEU60       0.0297
     79  CG        -2.4210   80.6030   94.7960 C.3    60  LEU60       0.0022
     80  CD1       -1.7070   81.6980   94.0520 C.3    60  LEU60       0.0001
     81  CD2       -2.9830   81.1310   96.1070 C.3    60  LEU60       0.0001
     82  N         -8.2160   77.0370   95.4410 N.3    63  LEU63      -0.1245
     83  CA        -8.6320   77.8020   96.6100 C.3    63  LEU63       0.1561
     84  C         -9.7780   78.7140   96.1790 C.2    63  LEU63       0.2260
     85  O        -10.8050   78.8040   96.8610 O.2    63  LEU63      -0.2867
     86  CB        -7.4780   78.6540   97.1480 C.3    63  LEU63       0.0270
     87  CG        -7.8440   79.5380   98.3500 C.3    63  LEU63       0.0019
     88  CD1       -8.2160   78.6690   99.5610 C.3    63  LEU63       0.0001
     89  CD2       -6.6700   80.4490   98.6830 C.3    63  LEU63       0.0001
     90  N         -9.6690   80.3740  104.5020 N.3    72  LEU72      -0.1245
     91  CA        -8.2520   80.1260  104.7730 C.3    72  LEU72       0.1561
     92  C         -7.7060   81.3370  105.5200 C.2    72  LEU72       0.2260
     93  O         -6.9730   81.2050  106.4970 O.2    72  LEU72      -0.2867
     94  CB        -7.4720   79.9850  103.4660 C.3    72  LEU72       0.0270
     95  CG        -6.2280   79.0830  103.3540 C.3    72  LEU72       0.0019
     96  CD1       -5.2040   79.8020  102.4860 C.3    72  LEU72       0.0001
     97  CD2       -5.6290   78.7400  104.7040 C.3    72  LEU72       0.0001
     98  N         -5.3430   81.2550  108.7670 N.3    76  LEU76      -0.1245
     99  CA        -3.9320   81.6060  108.7770 C.3    76  LEU76       0.1561
    100  C         -3.7080   82.8280  109.6590 C.2    76  LEU76       0.2260
    101  O         -2.6650   83.4650  109.6010 O.2    76  LEU76      -0.2867
    102  CB        -3.4150   81.8560  107.3530 C.3    76  LEU76       0.0270
    103  CG        -3.4380   80.6170  106.4470 C.3    76  LEU76       0.0019
    104  CD1       -2.8190   80.9480  105.0940 C.3    76  LEU76       0.0001
    105  CD2       -2.6770   79.4790  107.1060 C.3    76  LEU76       0.0001
    106  N         -4.9730   85.8990  109.5960 N.3    78  PHE78      -0.1241
    107  CA        -5.1240   87.2610  109.1070 C.3    78  PHE78       0.1605
    108  C         -6.2750   88.0320  109.7430 C.2    78  PHE78       0.2264
    109  O         -6.0990   89.1800  110.1690 O.2    78  PHE78      -0.2867
    110  CB        -5.2820   87.2990  107.5890 C.3    78  PHE78       0.0534
    111  CG        -4.0350   86.9230  106.8460 C.ar   78  PHE78      -0.0203
    112  CD1       -3.0970   87.8940  106.5130 C.ar   78  PHE78      -0.0042
    113  CD2       -3.7790   85.5970  106.5070 C.ar   78  PHE78      -0.0042
    114  CE1       -1.9100   87.5440  105.8470 C.ar   78  PHE78      -0.0003
    115  CE2       -2.6120   85.2400  105.8470 C.ar   78  PHE78      -0.0003
    116  CZ        -1.6700   86.2150  105.5140 C.ar   78  PHE78      -0.0000
    117  N         -7.0300   70.7670  103.3690 N.3   208  GLN208     -0.1231
    118  CA        -5.8010   70.0890  102.9760 C.3   208  GLN208      0.1698
    119  C         -4.5310   70.8560  103.3350 C.2   208  GLN208      0.2592
    120  O         -3.5290   70.2480  103.7100 O.2   208  GLN208     -0.2718
    121  CB        -5.8120   69.7340  101.4890 C.3   208  GLN208      0.0381
    122  CG        -5.6690   70.8800  100.5340 C.3   208  GLN208      0.0905
    123  CD        -5.5780   70.3900   99.0930 C.2   208  GLN208      0.2608
    124  OE1       -6.5530   69.8600   98.5350 O.2   208  GLN208     -0.2717
    125  NE2       -4.3960   70.5430   98.4880 N.am  208  GLN208     -0.0878
    126  N         -4.5630   72.1830  103.2410 N.am  209  LEU209     -0.1980
    127  CA        -3.3910   72.9670  103.6010 C.3   209  LEU209      0.1596
    128  C         -3.2070   72.8060  105.1180 C.2   209  LEU209      0.2287
    129  O         -2.0860   72.6360  105.6030 O.2   209  LEU209     -0.2864
    130  CB        -3.5860   74.4480  103.2390 C.3   209  LEU209      0.0297
    131  CG        -2.3400   75.3610  103.2830 C.3   209  LEU209      0.0022
    132  CD1       -2.7190   76.7790  102.8900 C.3   209  LEU209      0.0001
    133  CD2       -1.7340   75.3790  104.6580 C.3   209  LEU209      0.0001
    134  N         -1.3020   69.7520  106.0830 N.3   212  GLN212     -0.1245
    135  CA         0.1260   69.8950  105.8470 C.3   212  GLN212      0.1566
    136  C          0.8090   70.6860  106.9450 C.2   212  GLN212      0.2260
    137  O          2.0310   70.6890  107.0350 O.2   212  GLN212     -0.2867
    138  CB         0.3670   70.5870  104.5070 C.3   212  GLN212      0.0367
    139  CG        -0.2520   69.8590  103.3300 C.3   212  GLN212      0.0905
    140  CD         0.1860   68.4180  103.2750 C.2   212  GLN212      0.2608
    141  OE1        1.3800   68.1240  103.1900 O.2   212  GLN212     -0.2717
    142  NE2       -0.7790   67.5020  103.3320 N.am  212  GLN212     -0.0878
@<TRIPOS>BOND
     1    60    59    1
     2    43    41   ar
     3    43    44   ar
     4    41    39   ar
     5    45    44    1
     6    59    61    1
     7    59    56    1
     8    44    42   ar
     9    39    38    1
    10    39    40   ar
    11    58    57    2
    12    57    56    1
    13    56    55    1
    14    42    40   ar
    15    38    35    1
    16    36    37    2
    17    36    35    1
    18    46    47    1
    19    55    53   am
    20    35    34    1
    21    47    48    1
    22    47    50    1
    23    25    26    1
    24    34    27   am
    25    76    77    2
    26    76    75    1
    27    16    14    1
    28    62    63    1
    29    48    49    2
    30    48    51   am
    31    78    75    1
    32    78    79    1
    33    20    19    2
    34    27    26    1
    35    27    28    2
    36    80    79    1
    37    53    54    2
    38    53    52    1
    39    15    13    1
    40    51    52    1
    41    26    29    1
    42    75    74    1
    43    74    64   am
    44    79    81    1
    45    19    18    1
    46    14    13    1
    47    64    63    1
    48    64    65    2
    49    63    66    1
    50    13    10    1
    51    82    83    1
    52    29    30    1
    53    23    21    1
    54    30    31    1
    55     7     6    1
    56    84    83    1
    57    84    85    2
    58     3     4    2
    59     3     2    1
    60    18    21    1
    61    18    17    1
    62     5     6    1
    63     5     2    1
    64    66    67    1
    65    21    22    1
    66    12    11    2
    67    11    10    1
    68    10     9    1
    69    83    86    1
    70    32    31   ar
    71     6     8    1
    72     2     1    1
    73    86    87    1
    74    31    33   ar
    75    67    68   ar
    76    67    69   ar
    77    22    24    1
    78    68    70   ar
    79    69    71   ar
    80    87    89    1
    81    87    88    1
    82   125   123   am
    83   124   123    2
    84   123   122    1
    85    70    72   ar
    86    71    72   ar
    87    72    73    1
    88   122   121    1
    89   121   118    1
    90    96    95    1
    91   132   131    1
    92   118   119    1
    93   118   117    1
    94   141   140    2
    95   130   131    1
    96   130   127    1
    97   126   119   am
    98   126   127    1
    99   140   139    1
   100   140   142   am
   101   131   133    1
   102   139   138    1
   103   119   120    2
   104    95    94    1
   105    95    97    1
   106    94    91    1
   107   127   128    1
   108    90    91    1
   109   138   135    1
   110    91    92    1
   111   104   103    1
   112   128   129    2
   113   116   114   ar
   114   116   115   ar
   115    92    93    2
   116   114   112   ar
   117   115   113   ar
   118   135   134    1
   119   135   136    1
   120   103   105    1
   121   103   102    1
   122   113   111   ar
   123   112   111   ar
   124   111   110    1
   125   136   137    2
   126   102    99    1
   127   110   107    1
   128    98    99    1
   129    99   100    1
   130   107   106    1
   131   107   108    1
   132   101   100    2
   133   108   109    2
