@<TRIPOS>MOLECULE
tmp/1dlqB01.pdb
 119 109 0 0 0
SMALL
GASTEIGER

@<TRIPOS>ATOM
      1  N         -3.1720  102.5930   89.2940 N.3    25  ASN25      -0.1240
      2  CA        -3.3640  102.9950   90.6810 C.3    25  ASN25       0.1653
      3  C         -2.0570  102.7760   91.4430 C.2    25  ASN25       0.2266
      4  O         -1.6850  101.6430   91.7400 O.2    25  ASN25      -0.2867
      5  CB        -4.4910  102.1620   91.2850 C.3    25  ASN25       0.1155
      6  CG        -4.6990  102.4240   92.7620 C.2    25  ASN25       0.2627
      7  OD1       -5.6320  101.8940   93.3600 O.2    25  ASN25      -0.2716
      8  ND2       -3.8290  103.2250   93.3630 N.am   25  ASN25      -0.0877
      9  N         -1.2840  103.0730   94.4940 N.3    27  ARG27      -0.1231
     10  CA        -1.4200  102.3900   95.7730 C.3    27  ARG27       0.1694
     11  C         -1.2740  100.8850   95.5360 C.2    27  ARG27       0.2591
     12  O         -0.5880  100.1870   96.2940 O.2    27  ARG27      -0.2718
     13  CB        -2.7850  102.6980   96.3970 C.3    27  ARG27       0.0321
     14  CG        -3.1140  101.9240   97.6800 C.3    27  ARG27       0.0489
     15  CD        -2.0180  102.0230   98.7400 C.3    27  ARG27       0.2205
     16  NE        -2.4620  101.4700  100.0180 N.pl3  27  ARG27      -0.0865
     17  CZ        -1.6780  101.2910  101.0760 C.cat  27  ARG27       0.5346
     18  NH1       -0.3940  101.6190  101.0170 N.pl3  27  ARG27       0.1354
     19  NH2       -2.1820  100.7950  102.2030 N.pl3  27  ARG27       0.1354
     20  N         -1.9160  100.3930   94.4760 N.am   28  VAL28      -0.1980
     21  CA        -1.8550   98.9780   94.1300 C.3    28  VAL28       0.1595
     22  C         -0.4510   98.6010   93.6630 C.2    28  VAL28       0.2287
     23  O          0.0560   97.5400   94.0190 O.2    28  VAL28      -0.2864
     24  CB        -2.8820   98.6270   93.0330 C.3    28  VAL28       0.0276
     25  CG1       -2.6970   97.1950   92.5720 C.3    28  VAL28       0.0022
     26  CG2       -4.2910   98.8140   93.5720 C.3    28  VAL28       0.0022
     27  N          1.7970   98.2080   96.7020 N.3    31  ILE31      -0.1231
     28  CA         1.5710   96.9510   97.4030 C.3    31  ILE31       0.1692
     29  C          2.0530   95.7680   96.5730 C.2    31  ILE31       0.2591
     30  O          2.6780   94.8540   97.0970 O.2    31  ILE31      -0.2718
     31  CB         0.0840   96.7810   97.7260 C.3    31  ILE31       0.0266
     32  CG1       -0.3500   97.8920   98.6830 C.3    31  ILE31       0.0019
     33  CG2       -0.1770   95.3970   98.3240 C.3    31  ILE31       0.0020
     34  CD1       -1.8260   97.9380   98.9150 C.3    31  ILE31       0.0001
     35  N          1.7540   95.7820   95.2790 N.am   32  ILE32      -0.1980
     36  CA         2.1940   94.7130   94.3880 C.3    32  ILE32       0.1595
     37  C          3.7150   94.6690   94.3670 C.2    32  ILE32       0.2287
     38  O          4.3120   93.6050   94.4540 O.2    32  ILE32      -0.2864
     39  CB         1.6850   94.9220   92.9340 C.3    32  ILE32       0.0276
     40  CG1        0.1770   94.6880   92.8750 C.3    32  ILE32       0.0022
     41  CG2        2.4010   93.9890   91.9820 C.3    32  ILE32       0.0022
     42  CD1       -0.2480   93.2910   93.3210 C.3    32  ILE32       0.0001
     43  N          4.8300   93.0560   97.6640 N.3    35  VAL35      -0.1231
     44  CA         4.5080   91.6350   97.6800 C.3    35  VAL35       0.1692
     45  C          5.4000   90.8390   96.7120 C.2    35  VAL35       0.2591
     46  O          5.9570   89.8030   97.0940 O.2    35  VAL35      -0.2718
     47  CB         3.0170   91.4130   97.3240 C.3    35  VAL35       0.0266
     48  CG1        2.7050   89.9270   97.2200 C.3    35  VAL35       0.0020
     49  CG2        2.1470   92.0340   98.3890 C.3    35  VAL35       0.0020
     50  N          5.5400   91.3080   95.4730 N.am   36  LEU36      -0.1980
     51  CA         6.3730   90.5950   94.5130 C.3    36  LEU36       0.1596
     52  C          7.8050   90.4940   95.0100 C.2    36  LEU36       0.2287
     53  O          8.4140   89.4190   94.9730 O.2    36  LEU36      -0.2864
     54  CB         6.3780   91.2800   93.1440 C.3    36  LEU36       0.0297
     55  CG         5.1030   91.2640   92.2980 C.3    36  LEU36       0.0022
     56  CD1        5.3920   91.9610   90.9810 C.3    36  LEU36       0.0001
     57  CD2        4.6510   89.8340   92.0360 C.3    36  LEU36       0.0001
     58  N          8.0310   87.8610   97.6350 N.3    39  LEU39      -0.1245
     59  CA         7.8570   86.5240   97.0930 C.3    39  LEU39       0.1561
     60  C          9.0650   86.1010   96.2510 C.2    39  LEU39       0.2260
     61  O          9.5170   84.9650   96.3550 O.2    39  LEU39      -0.2867
     62  CB         6.5670   86.4390   96.2730 C.3    39  LEU39       0.0270
     63  CG         5.2730   86.5040   97.0930 C.3    39  LEU39       0.0019
     64  CD1        4.0700   86.5340   96.1590 C.3    39  LEU39       0.0001
     65  CD2        5.1940   85.2910   98.0340 C.3    39  LEU39       0.0001
     66  N         -3.7030   77.7300   94.5220 N.3    60  LEU60      -0.1245
     67  CA        -4.4230   78.9960   94.4440 C.3    60  LEU60       0.1561
     68  C         -5.6620   78.8990   93.5700 C.2    60  LEU60       0.2260
     69  O         -6.6980   79.4910   93.8910 O.2    60  LEU60      -0.2867
     70  CB        -3.5320   80.1010   93.8980 C.3    60  LEU60       0.0270
     71  CG        -2.4210   80.6030   94.7960 C.3    60  LEU60       0.0019
     72  CD1       -1.7070   81.6980   94.0520 C.3    60  LEU60       0.0001
     73  CD2       -2.9830   81.1310   96.1070 C.3    60  LEU60       0.0001
     74  N         -8.2160   77.0370   95.4410 N.3    63  LEU63      -0.1245
     75  CA        -8.6320   77.8020   96.6100 C.3    63  LEU63       0.1561
     76  C         -9.7780   78.7140   96.1790 C.2    63  LEU63       0.2260
     77  O        -10.8050   78.8040   96.8610 O.2    63  LEU63      -0.2867
     78  CB        -7.4780   78.6540   97.1480 C.3    63  LEU63       0.0270
     79  CG        -7.8440   79.5380   98.3500 C.3    63  LEU63       0.0019
     80  CD1       -8.2160   78.6690   99.5610 C.3    63  LEU63       0.0001
     81  CD2       -6.6700   80.4490   98.6830 C.3    63  LEU63       0.0001
     82  N        -11.0870   81.3950   99.8930 N.3    69  ALA69      -0.1245
     83  CA       -10.0660   82.3410  100.3090 C.3    69  ALA69       0.1562
     84  C        -10.4700   82.9820  101.6460 C.2    69  ALA69       0.2260
     85  O         -9.6340   83.1800  102.5230 O.2    69  ALA69      -0.2867
     86  CB        -9.8610   83.4030   99.2300 C.3    69  ALA69       0.0290
     87  N         -9.6690   80.3740  104.5020 N.3    72  LEU72      -0.1231
     88  CA        -8.2520   80.1260  104.7730 C.3    72  LEU72       0.1693
     89  C         -7.7060   81.3370  105.5200 C.2    72  LEU72       0.2592
     90  O         -6.9730   81.2050  106.4970 O.2    72  LEU72      -0.2718
     91  CB        -7.4720   79.9850  103.4660 C.3    72  LEU72       0.0284
     92  CG        -6.2280   79.0830  103.3540 C.3    72  LEU72       0.0019
     93  CD1       -5.2040   79.8020  102.4860 C.3    72  LEU72       0.0001
     94  CD2       -5.6290   78.7400  104.7040 C.3    72  LEU72       0.0001
     95  N         -8.0770   82.5210  105.0400 N.am   73  SER73      -0.1952
     96  CA        -7.6440   83.7750  105.6370 C.3    73  SER73       0.1924
     97  C         -7.7130   83.7140  107.1600 C.2    73  SER73       0.2314
     98  O         -6.6980   83.8860  107.8330 O.2    73  SER73      -0.2863
     99  CB        -8.5000   84.9260  105.1060 C.3    73  SER73       0.2116
    100  OG        -8.1680   86.1450  105.7360 O.3    73  SER73      -0.2180
    101  N         -5.3430   81.2550  108.7670 N.3    76  LEU76      -0.1245
    102  CA        -3.9320   81.6060  108.7770 C.3    76  LEU76       0.1561
    103  C         -3.7080   82.8280  109.6590 C.2    76  LEU76       0.2260
    104  O         -2.6650   83.4650  109.6010 O.2    76  LEU76      -0.2867
    105  CB        -3.4150   81.8560  107.3530 C.3    76  LEU76       0.0270
    106  CG        -3.4380   80.6170  106.4470 C.3    76  LEU76       0.0019
    107  CD1       -2.8190   80.9480  105.0940 C.3    76  LEU76       0.0001
    108  CD2       -2.6770   79.4790  107.1060 C.3    76  LEU76       0.0001
    109  N         -4.9730   85.8990  109.5960 N.3    78  PHE78      -0.1241
    110  CA        -5.1240   87.2610  109.1070 C.3    78  PHE78       0.1605
    111  C         -6.2750   88.0320  109.7430 C.2    78  PHE78       0.2264
    112  O         -6.0990   89.1800  110.1690 O.2    78  PHE78      -0.2867
    113  CB        -5.2820   87.2990  107.5890 C.3    78  PHE78       0.0534
    114  CG        -4.0350   86.9230  106.8460 C.ar   78  PHE78      -0.0203
    115  CD1       -3.0970   87.8940  106.5130 C.ar   78  PHE78      -0.0042
    116  CD2       -3.7790   85.5970  106.5070 C.ar   78  PHE78      -0.0042
    117  CE1       -1.9100   87.5440  105.8470 C.ar   78  PHE78      -0.0003
    118  CE2       -2.6120   85.2400  105.8470 C.ar   78  PHE78      -0.0003
    119  CZ        -1.6700   86.2150  105.5140 C.ar   78  PHE78      -0.0000
@<TRIPOS>BOND
     1     1     2    1
     2     2     5    1
     3     2     3    1
     4    56    55    1
     5     5     6    1
     6     3     4    2
     7    41    39    1
     8    57    55    1
     9    55    54    1
    10    25    24    1
    11     6     7    2
    12     6     8   am
    13    40    39    1
    14    40    42    1
    15    39    36    1
    16    24    26    1
    17    24    21    1
    18    54    51    1
    19    68    69    2
    20    68    67    1
    21    22    23    2
    22    22    21    1
    23    70    67    1
    24    70    71    1
    25    72    71    1
    26    21    20    1
    27    37    36    1
    28    37    38    2
    29    36    35    1
    30    67    66    1
    31    20    11   am
    32     9    10    1
    33    51    52    1
    34    51    50    1
    35    71    73    1
    36    53    52    2
    37    35    29   am
    38    74    75    1
    39    50    45   am
    40    11    10    1
    41    11    12    2
    42    10    13    1
    43    64    63    1
    44    76    75    1
    45    76    77    2
    46    60    61    2
    47    60    59    1
    48    62    63    1
    49    62    59    1
    50    13    14    1
    51    29    30    2
    52    29    28    1
    53    75    78    1
    54    27    28    1
    55    45    46    2
    56    45    44    1
    57    63    65    1
    58    59    58    1
    59    78    79    1
    60    48    47    1
    61    47    44    1
    62    47    49    1
    63    28    31    1
    64    43    44    1
    65    14    15    1
    66    31    33    1
    67    31    32    1
    68    79    81    1
    69    79    80    1
    70    32    34    1
    71    15    16    1
    72    86    83    1
    73    82    83    1
    74    16    17    2
    75    83    84    1
    76    18    17    1
    77    17    19    1
    78    84    85    2
    79    93    92    1
    80    92    91    1
    81    92    94    1
    82    91    88    1
    83    87    88    1
    84    88    89    1
    85    95    89   am
    86    95    96    1
    87   107   106    1
    88    99    96    1
    89    99   100    1
    90   119   118   ar
    91   119   117   ar
    92    89    90    2
    93    96    97    1
    94   118   116   ar
    95   117   115   ar
    96   106   108    1
    97   106   105    1
    98   116   114   ar
    99   115   114   ar
   100   114   113    1
   101    97    98    2
   102   105   102    1
   103   113   110    1
   104   101   102    1
   105   102   103    1
   106   110   109    1
   107   110   111    1
   108   104   103    2
   109   111   112    2
