@<TRIPOS>MOLECULE
tmp/1dltB01.pdb
 113 110 0 0 0
SMALL
GASTEIGER

@<TRIPOS>ATOM
      1  N        -11.5380   81.6980  104.4690 N.3    71  LEU71      -0.1245
      2  CA       -11.5400   80.6750  105.5080 C.3    71  LEU71       0.1561
      3  C        -10.0940   80.3940  105.9410 C.2    71  LEU71       0.2260
      4  O         -9.8050   80.2000  107.1160 O.2    71  LEU71      -0.2867
      5  CB       -12.1570   79.3790  104.9540 C.3    71  LEU71       0.0270
      6  CG       -12.3490   78.3150  106.0120 C.3    71  LEU71       0.0019
      7  CD1      -13.3750   78.8340  107.0690 C.3    71  LEU71       0.0001
      8  CD2      -12.8730   77.0500  105.3380 C.3    71  LEU71       0.0001
      9  N         -8.3910   83.4530  108.2490 N.3    74  PRO74      -0.2116
     10  CA        -8.4030   83.4060  109.7090 C.3    74  PRO74       0.1372
     11  C         -7.5530   82.2840  110.3120 C.2    74  PRO74       0.2244
     12  O         -6.9890   82.4360  111.4010 O.2    74  PRO74      -0.2868
     13  CB        -9.8950   83.2760  110.0300 C.3    74  PRO74       0.0268
     14  CG       -10.4380   82.5750  108.8620 C.3    74  PRO74       0.0207
     15  CD        -9.7680   83.3230  107.7410 C.3    74  PRO74       0.0892
     16  N        -12.8130   88.5120  115.5400 N.3   103  ILE103     -0.1245
     17  CA       -13.1020   88.3900  114.1230 C.3   103  ILE103      0.1561
     18  C        -14.5560   88.2210  113.7080 C.2   103  ILE103      0.2260
     19  O        -15.4260   87.7220  114.4610 O.2   103  ILE103     -0.2867
     20  CB       -12.2260   87.2890  113.4740 C.3   103  ILE103      0.0252
     21  CG1      -12.7450   85.8840  113.8260 C.3   103  ILE103      0.0019
     22  CG2      -10.7870   87.4370  113.9850 C.3   103  ILE103      0.0019
     23  CD1      -11.9380   84.7620  113.1640 C.3   103  ILE103      0.0001
     24  N        -15.2540   86.6770  110.7600 N.3   105  GLY105     -0.1210
     25  CA       -15.3600   85.3850  110.1020 C.3   105  GLY105      0.1940
     26  C        -15.8800   85.6800  108.6980 C.2   105  GLY105      0.2454
     27  O        -16.2830   86.8170  108.3890 O.2   105  GLY105     -0.2732
     28  N        -15.8980   84.6840  107.8140 N.am  106  PRO106     -0.2717
     29  CA       -16.3890   84.9230  106.4380 C.3   106  PRO106      0.1535
     30  C        -17.8520   84.5660  106.1380 C.2   106  PRO106      0.2598
     31  O        -18.2600   84.5650  104.9720 O.2   106  PRO106     -0.2715
     32  CB       -15.4530   84.0560  105.6170 C.3   106  PRO106      0.0310
     33  CG       -15.4510   82.7700  106.4800 C.3   106  PRO106      0.0237
     34  CD       -15.3780   83.3070  107.9590 C.3   106  PRO106      0.0939
     35  N        -18.6360   84.2870  107.1660 N.am  107  LEU107     -0.1978
     36  CA       -19.9990   83.8410  106.9540 C.3   107  LEU107      0.1596
     37  C        -21.1510   84.7640  107.2870 C.2   107  LEU107      0.2287
     38  O        -22.2940   84.3000  107.4470 O.2   107  LEU107     -0.2864
     39  CB       -20.1850   82.4900  107.6660 C.3   107  LEU107      0.0297
     40  CG       -19.0960   81.4840  107.2660 C.3   107  LEU107      0.0022
     41  CD1      -19.2110   80.2310  108.1150 C.3   107  LEU107      0.0001
     42  CD2      -19.1810   81.1590  105.7880 C.3   107  LEU107      0.0001
     43  N        -23.8130   76.8380  108.6320 N.3   162  TYR162     -0.1241
     44  CA       -24.4720   78.1400  108.6040 C.3   162  TYR162      0.1605
     45  C        -25.4250   78.1660  107.4180 C.2   162  TYR162      0.2264
     46  O        -25.1200   77.6230  106.3470 O.2   162  TYR162     -0.2867
     47  CB       -23.4760   79.2850  108.4000 C.3   162  TYR162      0.0534
     48  CG       -22.6310   79.6410  109.6060 C.ar  162  TYR162     -0.0201
     49  CD1      -21.6360   78.7750  110.0830 C.ar  162  TYR162     -0.0009
     50  CD2      -22.8390   80.8450  110.2770 C.ar  162  TYR162     -0.0009
     51  CE1      -20.8680   79.1140  111.2150 C.ar  162  TYR162      0.0417
     52  CE2      -22.0890   81.1920  111.3870 C.ar  162  TYR162      0.0417
     53  CZ       -21.1000   80.3220  111.8570 C.ar  162  TYR162      0.1957
     54  OH       -20.3560   80.7030  112.9620 O.3   162  TYR162     -0.2866
     55  N        -17.8380   74.7840  114.6700 N.3   198  TYR198     -0.1241
     56  CA       -17.6730   74.8010  113.2270 C.3   198  TYR198      0.1605
     57  C        -16.3980   74.0660  112.8730 C.2   198  TYR198      0.2264
     58  O        -15.4430   74.0890  113.6310 O.2   198  TYR198     -0.2867
     59  CB       -17.5670   76.2440  112.7340 C.3   198  TYR198      0.0534
     60  CG       -17.2180   76.3640  111.2720 C.ar  198  TYR198     -0.0201
     61  CD1      -18.2090   76.3140  110.2900 C.ar  198  TYR198     -0.0009
     62  CD2      -15.8850   76.5110  110.8620 C.ar  198  TYR198     -0.0009
     63  CE1      -17.8910   76.4100  108.9290 C.ar  198  TYR198      0.0417
     64  CE2      -15.5480   76.6070  109.4970 C.ar  198  TYR198      0.0417
     65  CZ       -16.5590   76.5570  108.5450 C.ar  198  TYR198      0.1957
     66  OH       -16.2210   76.6600  107.2180 O.3   198  TYR198     -0.2866
     67  N        -13.4870   75.1260  115.3430 N.3   219  ARG219     -0.1245
     68  CA       -13.7510   76.3100  116.1590 C.3   219  ARG219      0.1563
     69  C        -14.7040   75.8650  117.2470 C.2   219  ARG219      0.2260
     70  O        -15.4810   74.9300  117.0420 O.2   219  ARG219     -0.2867
     71  CB       -14.4430   77.4280  115.3750 C.3   219  ARG219      0.0307
     72  CG       -13.6900   77.9600  114.1750 C.3   219  ARG219      0.0489
     73  CD       -14.0290   79.4260  114.0350 C.3   219  ARG219      0.2205
     74  NE       -13.7020   80.0930  115.2960 N.pl3 219  ARG219     -0.0865
     75  CZ       -14.2010   81.2560  115.7040 C.cat 219  ARG219      0.5346
     76  NH1      -15.0710   81.8970  114.9570 N.pl3 219  ARG219      0.1354
     77  NH2      -13.8380   81.7750  116.8760 N.pl3 219  ARG219      0.1354
     78  N        -19.8330   78.9400  118.9450 N.3   222  HIS222     -0.1241
     79  CA       -19.8220   80.3770  119.1740 C.3   222  HIS222      0.1621
     80  C        -20.9740   81.0640  118.4870 C.2   222  HIS222      0.2264
     81  O        -21.6360   80.4840  117.6160 O.2   222  HIS222     -0.2867
     82  CB       -18.5180   80.9900  118.6580 C.3   222  HIS222      0.0745
     83  CG       -18.2970   80.7610  117.1930 C.ar  222  HIS222      0.0817
     84  ND1      -17.9540   79.5300  116.6760 N.ar  222  HIS222     -0.2268
     85  CD2      -18.5270   81.5640  116.1250 C.ar  222  HIS222      0.1154
     86  CE1      -17.9850   79.5810  115.3570 C.ar  222  HIS222      0.1986
     87  NE2      -18.3320   80.8050  114.9980 N.ar  222  HIS222     -0.2212
     88  N        -21.9140   84.8500  116.6460 N.3   224  HIS224     -0.1241
     89  CA       -21.4330   86.1070  116.0960 C.3   224  HIS224      0.1621
     90  C        -22.3690   87.2790  116.4060 C.2   224  HIS224      0.2264
     91  O        -23.6080   87.1330  116.4420 O.2   224  HIS224     -0.2867
     92  CB       -21.3200   86.0000  114.5730 C.3   224  HIS224      0.0745
     93  CG       -20.2440   85.0710  114.1020 C.ar  224  HIS224      0.0817
     94  ND1      -18.9360   85.4700  113.9420 N.ar  224  HIS224     -0.2268
     95  CD2      -20.2880   83.7800  113.7020 C.ar  224  HIS224      0.1154
     96  CE1      -18.2180   84.4730  113.4570 C.ar  224  HIS224      0.1986
     97  NE2      -19.0130   83.4350  113.2990 N.ar  224  HIS224     -0.2212
     98  N         -8.9730   77.2590  115.7570 N.3   251  PHE251     -0.1227
     99  CA        -8.0450   77.3690  114.6220 C.3   251  PHE251      0.1736
    100  C         -8.0030   78.7770  114.0490 C.2   251  PHE251      0.2595
    101  O         -7.0850   79.1150  113.2900 O.2   251  PHE251     -0.2718
    102  CB        -8.4050   76.3890  113.4870 C.3   251  PHE251      0.0547
    103  CG        -9.3360   76.9630  112.4380 C.ar  251  PHE251     -0.0202
    104  CD1      -10.7070   77.0950  112.6720 C.ar  251  PHE251     -0.0042
    105  CD2       -8.8350   77.3910  111.2140 C.ar  251  PHE251     -0.0042
    106  CE1      -11.5600   77.6470  111.6940 C.ar  251  PHE251     -0.0003
    107  CE2       -9.6820   77.9470  110.2200 C.ar  251  PHE251     -0.0003
    108  CZ       -11.0390   78.0700  110.4700 C.ar  251  PHE251     -0.0000
    109  N         -9.0090   79.5830  114.3860 N.am  252  ALA252     -0.1980
    110  CA        -9.0780   80.9570  113.8860 C.3   252  ALA252      0.1597
    111  C         -8.6160   81.9610  114.9540 C.2   252  ALA252      0.2287
    112  O         -8.7390   83.1660  114.7780 O.2   252  ALA252     -0.2864
    113  CB       -10.5060   81.2770  113.4270 C.3   252  ALA252      0.0319
@<TRIPOS>BOND
     1     1     2    1
     2     5     2    1
     3     5     6    1
     4    31    30    2
     5     8     6    1
     6     2     3    1
     7    32    29    1
     8    32    33    1
     9    42    40    1
    10     3     4    2
    11     6     7    1
    12    30    29    1
    13    30    35   am
    14    46    45    2
    15    29    28    1
    16    33    34    1
    17    36    35    1
    18    36    37    1
    19    36    39    1
    20    66    65    1
    21    40    39    1
    22    40    41    1
    23    37    38    2
    24    45    44    1
    25    15     9    1
    26    15    14    1
    27    28    34    1
    28    28    26   am
    29     9    10    1
    30    27    26    2
    31    47    44    1
    32    47    48    1
    33    65    63   ar
    34    65    64   ar
    35    44    43    1
    36    26    25    1
    37    14    13    1
    38    63    61   ar
    39    64    62   ar
    40    48    49   ar
    41    48    50   ar
    42    10    13    1
    43    10    11    1
    44    49    51   ar
    45    25    24    1
    46   107   108   ar
    47   107   105   ar
    48    50    52   ar
    49    61    60   ar
    50    11    12    2
    51   108   106   ar
    52    62    60   ar
    53   105   103   ar
    54    51    53   ar
    55    60    59    1
    56    52    53   ar
    57   106   104   ar
    58    53    54    1
    59   103   104   ar
    60   103   102    1
    61    59    56    1
    62    57    56    1
    63    57    58    2
    64    23    21    1
    65    56    55    1
    66   101   100    2
    67    97    96   ar
    68    97    95   ar
    69   113   110    1
    70    96    94   ar
    71    20    21    1
    72    20    22    1
    73    20    17    1
    74   102    99    1
    75    95    93   ar
    76    18    17    1
    77    18    19    2
    78   110   109    1
    79   110   111    1
    80    94    93   ar
    81    73    72    1
    82    73    74    1
    83   100   109   am
    84   100    99    1
    85    93    92    1
    86    17    16    1
    87    72    71    1
    88    92    89    1
    89    99    98    1
    90   112   111    2
    91    76    75    1
    92    87    86   ar
    93    87    85   ar
    94    74    75    2
    95    67    68    1
    96    86    84   ar
    97    71    68    1
    98    75    77    1
    99    89    90    1
   100    89    88    1
   101    85    83   ar
   102    68    69    1
   103    90    91    2
   104    84    83   ar
   105    70    69    2
   106    83    82    1
   107    81    80    2
   108    80    79    1
   109    82    79    1
   110    78    79    1
