@<TRIPOS>MOLECULE
tmp/1dluA00.pdb
 107 102 0 0 0
SMALL
GASTEIGER

@<TRIPOS>ATOM
      1  N         30.9210   -7.4130   18.1480 N.3   116  MET116     -0.1301
      2  CA        29.9000   -8.0740   19.0370 C.3   116  MET116      0.1256
      3  C         30.3130   -7.8080   20.4490 C.3   116  MET116      0.2010
      4  O         29.4870   -7.5250   21.3930 O.3   116  MET116     -0.2188
      5  CB        29.6760   -9.5010   18.6130 C.3   116  MET116      0.0333
      6  CG        29.1400   -9.5940   17.1720 C.3   116  MET116      0.0592
      7  SD        29.0140  -11.3510   16.6720 S.3   116  MET116     -0.1393
      8  CE        27.6290  -11.7960   17.8040 C.3   116  MET116      0.0692
      9  N         20.9340  -12.1060   17.4600 N.3   145  LEU145     -0.1245
     10  CA        20.7800  -13.5210   17.4470 C.3   145  LEU145      0.1561
     11  C         19.4650  -14.1410   17.7700 C.2   145  LEU145      0.2260
     12  O         19.2760  -15.3990   17.8200 O.2   145  LEU145     -0.2867
     13  CB        21.8270  -14.0870   18.5250 C.3   145  LEU145      0.0270
     14  CG        23.2710  -13.6000   18.4090 C.3   145  LEU145      0.0019
     15  CD1       24.1610  -14.0150   19.6280 C.3   145  LEU145      0.0001
     16  CD2       24.0590  -14.0590   17.1550 C.3   145  LEU145      0.0001
     17  N         16.6280  -18.4680   19.9970 N.3   153  HIS153     -0.1226
     18  CA        17.9050  -18.1290   19.3710 C.3   153  HIS153      0.1752
     19  C         18.1110  -18.7900   18.0220 C.2   153  HIS153      0.2595
     20  O         17.4680  -19.6970   17.5610 O.2   153  HIS153     -0.2718
     21  CB        19.0860  -18.4400   20.2730 C.3   153  HIS153      0.0759
     22  CG        20.5240  -18.2690   20.0220 C.ar  153  HIS153      0.0818
     23  ND1       21.2870  -18.7810   18.9380 N.ar  153  HIS153     -0.2268
     24  CD2       21.3990  -17.5970   20.8350 C.ar  153  HIS153      0.1154
     25  CE1       22.5240  -18.3440   19.1230 C.ar  153  HIS153      0.1986
     26  NE2       22.6590  -17.6710   20.2880 N.ar  153  HIS153     -0.2212
     27  N         19.1250  -18.2660   17.3100 N.am  154  MET154     -0.1979
     28  CA        19.5110  -18.8030   15.9970 C.3   154  MET154      0.1605
     29  C         19.8130  -20.2950   16.1220 C.2   154  MET154      0.2287
     30  O         19.5810  -21.1280   15.2250 O.2   154  MET154     -0.2864
     31  CB        20.6790  -17.9610   15.5080 C.3   154  MET154      0.0413
     32  CG        20.2650  -16.5500   15.0200 C.3   154  MET154      0.0598
     33  SD        18.9580  -16.5810   13.8040 S.3   154  MET154     -0.1393
     34  CE        17.4640  -16.1240   14.6120 C.3   154  MET154      0.0692
     35  N         21.4210  -25.1850   23.0510 N.3   232  PHE232     -0.1241
     36  CA        20.1580  -24.4900   22.8040 C.3   232  PHE232      0.1605
     37  C         18.9620  -25.3150   23.1940 C.2   232  PHE232      0.2264
     38  O         18.0010  -24.8830   23.8130 O.2   232  PHE232     -0.2867
     39  CB        19.9880  -24.1060   21.2970 C.3   232  PHE232      0.0534
     40  CG        21.1360  -23.1790   20.9640 C.ar  232  PHE232     -0.0203
     41  CD1       21.1750  -21.8560   21.3800 C.ar  232  PHE232     -0.0042
     42  CD2       22.1990  -23.7820   20.2840 C.ar  232  PHE232     -0.0042
     43  CE1       22.2740  -21.0880   21.0870 C.ar  232  PHE232     -0.0003
     44  CE2       23.2990  -22.9650   20.0010 C.ar  232  PHE232     -0.0003
     45  CZ        23.3440  -21.6500   20.4060 C.ar  232  PHE232     -0.0000
     46  N         28.2420  -25.5940   21.2290 N.3   240  ALA240     -0.1245
     47  CA        29.1200  -24.5200   20.9640 C.3   240  ALA240      0.1562
     48  C         30.2050  -24.9670   19.9680 C.2   240  ALA240      0.2260
     49  O         30.9080  -24.2030   19.3310 O.2   240  ALA240     -0.2867
     50  CB        29.8000  -24.3560   22.3500 C.3   240  ALA240      0.0290
     51  N         28.7550  -24.9380   16.2230 N.3   243  ALA243     -0.1231
     52  CA        28.1400  -23.6880   15.8890 C.3   243  ALA243      0.1694
     53  C         29.3140  -22.6840   15.7520 C.2   243  ALA243      0.2593
     54  O         30.3450  -22.9490   16.4070 O.2   243  ALA243     -0.2718
     55  CB        27.2600  -23.0760   16.9980 C.3   243  ALA243      0.0304
     56  N         29.1040  -21.5750   15.0270 N.am  244  SER244     -0.1938
     57  CA        30.1280  -20.5700   14.8800 C.3   244  SER244      0.2055
     58  C         30.2300  -19.8270   16.2230 C.2   244  SER244      0.2644
     59  O         29.5490  -20.3000   17.1510 O.2   244  SER244     -0.2714
     60  CB        29.9040  -19.6440   13.7020 C.3   244  SER244      0.2130
     61  OG        31.2130  -19.0010   13.7960 O.3   244  SER244     -0.2179
     62  N         30.9380  -18.7520   16.4070 N.am  245  GLY245     -0.1939
     63  CA        30.8950  -18.1480   17.7720 C.3   245  GLY245      0.2014
     64  C         30.3450  -16.7330   17.5870 C.2   245  GLY245      0.2638
     65  O         29.6550  -16.3310   16.6070 O.2   245  GLY245     -0.2714
     66  N         30.7350  -15.9340   18.5330 N.am  246  LEU246     -0.1977
     67  CA        30.4350  -14.5390   18.6980 C.3   246  LEU246      0.1596
     68  C         31.7560  -13.8940   18.4280 C.2   246  LEU246      0.2287
     69  O         32.7790  -14.2540   19.0120 O.2   246  LEU246     -0.2864
     70  CB        29.9560  -14.1840   20.1480 C.3   246  LEU246      0.0297
     71  CG        28.9310  -15.2170   20.6510 C.3   246  LEU246      0.0022
     72  CD1       28.8120  -15.0500   22.2040 C.3   246  LEU246      0.0001
     73  CD2       27.6450  -14.9150   19.8900 C.3   246  LEU246      0.0001
     74  N         27.1640  -20.8760    9.6780 N.3   315  ALA315     -0.1231
     75  CA        26.4870  -20.4120   10.8810 C.3   315  ALA315      0.1694
     76  C         26.4780  -21.5750   11.8520 C.2   315  ALA315      0.2592
     77  O         26.7840  -21.6110   13.0660 O.2   315  ALA315     -0.2718
     78  CB        25.0520  -19.8250   10.6660 C.3   315  ALA315      0.0304
     79  N         26.0870  -22.7370   11.2600 N.am  316  PHE316     -0.1976
     80  CA        26.0100  -23.9140   12.0990 C.3   316  PHE316      0.1639
     81  C         26.2990  -25.1790   11.3060 C.2   316  PHE316      0.2290
     82  O         25.8450  -25.2450   10.1500 O.2   316  PHE316     -0.2864
     83  CB        24.6350  -24.1020   12.8050 C.3   316  PHE316      0.0560
     84  CG        24.1920  -23.0480   13.7700 C.ar  316  PHE316     -0.0200
     85  CD1       24.3220  -23.0860   15.1220 C.ar  316  PHE316     -0.0042
     86  CD2       23.4640  -21.9590   13.2500 C.ar  316  PHE316     -0.0042
     87  CE1       23.8590  -22.1180   15.9570 C.ar  316  PHE316     -0.0003
     88  CE2       22.9980  -20.9550   14.0130 C.ar  316  PHE316     -0.0003
     89  CZ        23.2150  -21.0160   15.3740 C.ar  316  PHE316     -0.0000
     90  N         32.3120  -15.6490   13.4280 N.3   345  HIS345     -0.1241
     91  CA        31.1930  -15.0020   12.8400 C.3   345  HIS345      0.1621
     92  C         30.8950  -13.5700   13.2810 C.2   345  HIS345      0.2264
     93  O         29.9240  -13.3950   14.0370 O.2   345  HIS345     -0.2867
     94  CB        29.9310  -15.7990   13.3100 C.3   345  HIS345      0.0745
     95  CG        28.8030  -15.5570   12.3290 C.ar  345  HIS345      0.0817
     96  ND1       28.9090  -15.0770   11.0740 N.ar  345  HIS345     -0.2268
     97  CD2       27.4460  -15.6700   12.4660 C.ar  345  HIS345      0.1154
     98  CE1       27.7310  -14.9650   10.4160 C.ar  345  HIS345      0.1986
     99  NE2       26.8660  -15.3310   11.2790 N.ar  345  HIS345     -0.2212
    100  N         28.9190  -10.8900   12.8660 N.3   347  ILE347     -0.1245
    101  CA        27.7310  -10.7560   12.0190 C.3   347  ILE347      0.1561
    102  C         27.6740   -9.7730   10.8870 C.2   347  ILE347      0.2260
    103  O         27.4770  -10.2660    9.7620 O.2   347  ILE347     -0.2867
    104  CB        26.3880  -10.7590   12.8170 C.3   347  ILE347      0.0252
    105  CG1       26.1120   -9.7990   13.9060 C.3   347  ILE347      0.0019
    106  CG2       26.5970  -12.0340   13.6930 C.3   347  ILE347      0.0019
    107  CD1       25.0980  -10.3720   14.9700 C.3   347  ILE347      0.0001
@<TRIPOS>BOND
     1    74    75    1
     2   103   102    2
     3    82    81    2
     4    98    96   ar
     5    98    99   ar
     6    78    75    1
     7    75    76    1
     8   102   101    1
     9    96    95   ar
    10    79    76   am
    11    79    80    1
    12    99    97   ar
    13    81    80    1
    14    76    77    2
    15   101   104    1
    16   101   100    1
    17    80    83    1
    18    95    97   ar
    19    95    94    1
    20    83    84    1
    21   104   106    1
    22   104   105    1
    23    91    92    1
    24    91    94    1
    25    91    90    1
    26    86    84   ar
    27    86    88   ar
    28    92    93    2
    29    60    61    1
    30    60    57    1
    31    84    85   ar
    32    33    34    1
    33    33    32    1
    34   105   107    1
    35    88    89   ar
    36    57    56    1
    37    57    58    1
    38    32    31    1
    39    56    53   am
    40    85    87   ar
    41    30    29    2
    42    89    87   ar
    43    31    28    1
    44    53    52    1
    45    53    54    2
    46    52    51    1
    47    52    55    1
    48    28    29    1
    49    28    27    1
    50    58    62   am
    51    58    59    2
    52    62    63    1
    53    65    64    2
    54     7     6    1
    55     7     8    1
    56    16    14    1
    57     6     5    1
    58    27    19   am
    59    10     9    1
    60    10    11    1
    61    10    13    1
    62    20    19    2
    63    64    63    1
    64    64    66   am
    65    11    12    2
    66    19    18    1
    67     1     2    1
    68    14    13    1
    69    14    15    1
    70    68    67    1
    71    68    69    2
    72    66    67    1
    73     5     2    1
    74    67    70    1
    75    23    25   ar
    76    23    22   ar
    77     2     3    1
    78    25    26   ar
    79    49    48    2
    80    18    17    1
    81    18    21    1
    82    73    71    1
    83    48    47    1
    84    44    42   ar
    85    44    45   ar
    86    22    21    1
    87    22    24   ar
    88    70    71    1
    89    42    40   ar
    90    26    24   ar
    91    45    43   ar
    92     3     4    1
    93    71    72    1
    94    40    39    1
    95    40    41   ar
    96    47    46    1
    97    47    50    1
    98    43    41   ar
    99    39    36    1
   100    36    35    1
   101    36    37    1
   102    37    38    2
