@<TRIPOS>MOLECULE
tmp/1dlyA00.pdb
 227 217 0 0 0
SMALL
GASTEIGER

@<TRIPOS>ATOM
      1  N          9.8140   -2.0430   10.7900 N.3    29  VAL29      -0.1245
      2  CA         8.8240   -0.9830   10.5740 C.3    29  VAL29       0.1561
      3  C          9.3580    0.4210   10.2810 C.2    29  VAL29       0.2260
      4  O          8.6070    1.2880    9.8390 O.2    29  VAL29      -0.2867
      5  CB         7.8790   -0.8500   11.8150 C.3    29  VAL29       0.0252
      6  CG1        7.1580   -2.1690   12.0800 C.3    29  VAL29       0.0019
      7  CG2        8.6870   -0.4200   13.0560 C.3    29  VAL29       0.0019
      8  N          8.7180    2.6260    6.9420 N.3    32  TYR32      -0.1227
      9  CA         7.4190    3.2350    6.7270 C.3    32  TYR32       0.1736
     10  C          7.4660    4.7080    7.1180 C.2    32  TYR32       0.2595
     11  O          6.7110    5.5190    6.5930 O.2    32  TYR32      -0.2718
     12  CB         6.3460    2.5350    7.5650 C.3    32  TYR32       0.0548
     13  CG         5.9270    1.2060    7.0020 C.ar   32  TYR32      -0.0200
     14  CD1        6.4510    0.0150    7.4970 C.ar   32  TYR32      -0.0009
     15  CD2        5.0040    1.1440    5.9610 C.ar   32  TYR32      -0.0009
     16  CE1        6.0590   -1.2140    6.9700 C.ar   32  TYR32       0.0417
     17  CE2        4.6100   -0.0730    5.4220 C.ar   32  TYR32       0.0417
     18  CZ         5.1360   -1.2440    5.9280 C.ar   32  TYR32       0.1957
     19  OH         4.7360   -2.4420    5.3870 O.3    32  TYR32      -0.2866
     20  N          8.3740    5.0420    8.0300 N.am   33  PHE33      -0.1976
     21  CA         8.4950    6.4120    8.5260 C.3    33  PHE33       0.1639
     22  C          9.6310    7.2170    7.9120 C.2    33  PHE33       0.2290
     23  O          9.9480    8.3000    8.4060 O.2    33  PHE33      -0.2864
     24  CB         8.6830    6.4100   10.0500 C.3    33  PHE33       0.0560
     25  CG         7.5540    5.7720   10.8000 C.ar   33  PHE33      -0.0200
     26  CD1        7.5310    4.3990   11.0140 C.ar   33  PHE33      -0.0042
     27  CD2        6.5050    6.5450   11.2790 C.ar   33  PHE33      -0.0042
     28  CE1        6.4800    3.7990   11.6960 C.ar   33  PHE33      -0.0003
     29  CE2        5.4440    5.9550   11.9640 C.ar   33  PHE33      -0.0003
     30  CZ         5.4350    4.5740   12.1710 C.ar   33  PHE33      -0.0000
     31  N          9.8130    9.1340    5.3880 N.3    35  ASN35      -0.1225
     32  CA         9.4430   10.4800    4.9280 C.3    35  ASN35       0.1785
     33  C          8.5660   11.2120    5.9390 C.2    35  ASN35       0.2597
     34  O          7.8620   12.1640    5.5860 O.2    35  ASN35      -0.2718
     35  CB         8.6980   10.4150    3.5940 C.3    35  ASN35       0.1169
     36  CG         9.5860    9.9640    2.4600 C.2    35  ASN35       0.2627
     37  OD1       10.7330   10.3960    2.3540 O.2    35  ASN35      -0.2716
     38  ND2        9.0620    9.0950    1.5990 N.am   35  ASN35      -0.0877
     39  N          8.6230   10.7760    7.1920 N.am   36  THR36      -0.1953
     40  CA         7.8170   11.3570    8.2640 C.3    36  THR36       0.1897
     41  C          8.6300   12.2190    9.2290 C.2    36  THR36       0.2313
     42  O          9.7370   11.8470    9.6410 O.2    36  THR36      -0.2863
     43  CB         7.1450   10.2410    9.1100 C.3    36  THR36       0.1794
     44  OG1        6.3320    9.4250    8.2570 O.3    36  THR36      -0.2208
     45  CG2        6.2780   10.8490   10.1950 C.3    36  THR36       0.0378
     46  N          5.0010   13.3550   14.2500 N.3    41  GLN41      -0.1245
     47  CA         4.3800   12.0650   14.5170 C.3    41  GLN41       0.1566
     48  C          4.1820   11.8770   16.0270 C.2    41  GLN41       0.2260
     49  O          3.1500   11.3630   16.4640 O.2    41  GLN41      -0.2867
     50  CB         5.2230   10.9300   13.9310 C.3    41  GLN41       0.0367
     51  CG         4.5320    9.5670   13.9290 C.3    41  GLN41       0.0905
     52  CD         3.2600    9.5370   13.0990 C.2    41  GLN41       0.2608
     53  OE1        2.9910   10.4360   12.2930 O.2    41  GLN41      -0.2717
     54  NE2        2.4790    8.4860   13.2770 N.am   41  GLN41      -0.0878
     55  N          1.0810   13.8410   16.8930 N.3    44  LYS44      -0.1231
     56  CA        -0.1780   13.2170   16.5050 C.3    44  LYS44       0.1693
     57  C         -0.5020   11.9740   17.3430 C.2    44  LYS44       0.2591
     58  O         -1.6540   11.7610   17.7210 O.2    44  LYS44      -0.2718
     59  CB        -0.1520   12.8620   15.0140 C.3    44  LYS44       0.0285
     60  CG        -0.1310   14.0780   14.0810 C.3    44  LYS44       0.0035
     61  CD        -0.2340   13.6280   12.6270 C.3    44  LYS44       0.0206
     62  CE        -0.3980   14.8070   11.6800 C.3    44  LYS44       0.1093
     63  NZ        -0.7180   14.3420   10.2950 N.3    44  LYS44      -0.1314
     64  N          0.5100   11.1650   17.6500 N.am   45  GLN45      -0.1979
     65  CA         0.2700    9.9530   18.4300 C.3    45  GLN45       0.1601
     66  C         -0.1880   10.3160   19.8330 C.2    45  GLN45       0.2287
     67  O         -1.0760    9.6590   20.3840 O.2    45  GLN45      -0.2864
     68  CB         1.5240    9.0810   18.4940 C.3    45  GLN45       0.0394
     69  CG         1.2850    7.6780   19.0990 C.3    45  GLN45       0.0908
     70  CD         0.3190    6.8380   18.2710 C.2    45  GLN45       0.2608
     71  OE1       -0.8720    6.7460   18.5780 O.2    45  GLN45      -0.2717
     72  NE2        0.8270    6.2310   17.2120 N.am   45  GLN45      -0.0878
     73  N         -3.8190   11.2310   19.5680 N.3    48  PHE48      -0.1227
     74  CA        -4.6890   10.0780   19.3580 C.3    48  PHE48       0.1736
     75  C         -4.8110    9.2380   20.6240 C.2    48  PHE48       0.2595
     76  O         -5.9190    8.8730   21.0370 O.2    48  PHE48      -0.2718
     77  CB        -4.1720    9.1780   18.2370 C.3    48  PHE48       0.0547
     78  CG        -4.9920    7.9320   18.0630 C.ar   48  PHE48      -0.0202
     79  CD1       -6.2710    8.0000   17.5090 C.ar   48  PHE48      -0.0042
     80  CD2       -4.5130    6.7010   18.5070 C.ar   48  PHE48      -0.0042
     81  CE1       -7.0670    6.8530   17.4000 C.ar   48  PHE48      -0.0003
     82  CE2       -5.2970    5.5500   18.4030 C.ar   48  PHE48      -0.0003
     83  CZ        -6.5780    5.6260   17.8470 C.ar   48  PHE48      -0.0000
     84  N         -3.6730    8.9290   21.2440 N.am   49  LEU49      -0.1980
     85  CA        -3.6840    8.1240   22.4600 C.3    49  LEU49       0.1596
     86  C         -4.4030    8.8170   23.6110 C.2    49  LEU49       0.2287
     87  O         -5.0630    8.1570   24.4090 O.2    49  LEU49      -0.2864
     88  CB        -2.2520    7.7460   22.8720 C.3    49  LEU49       0.0297
     89  CG        -1.5550    6.7650   21.9160 C.3    49  LEU49       0.0022
     90  CD1       -0.1350    6.4880   22.4150 C.3    49  LEU49       0.0001
     91  CD2       -2.3620    5.4640   21.8200 C.3    49  LEU49       0.0001
     92  N        -10.7660   12.9710   18.8540 N.3    59  TRP59      -0.1241
     93  CA        -9.5940   12.8300   17.9920 C.3    59  TRP59       0.1605
     94  C        -10.0200   13.4140   16.6480 C.2    59  TRP59       0.2264
     95  O        -10.9740   12.9360   16.0390 O.2    59  TRP59      -0.2867
     96  CB        -9.2290   11.3480   17.8480 C.3    59  TRP59       0.0550
     97  CG        -8.3880   11.0200   16.6590 C.ar   59  TRP59       0.0003
     98  CD1       -8.7240   10.1880   15.6200 C.ar   59  TRP59       0.0946
     99  CD2       -7.0550   11.4710   16.3970 C.ar   59  TRP59       0.0152
    100  NE1       -7.6810   10.0950   14.7330 N.ar   59  TRP59      -0.2442
    101  CE2       -6.6410   10.8680   15.1840 C.ar   59  TRP59       0.0810
    102  CE3       -6.1650   12.3250   17.0700 C.ar   59  TRP59       0.0012
    103  CZ2       -5.3750   11.0870   14.6290 C.ar   59  TRP59       0.0191
    104  CZ3       -4.9000   12.5440   16.5170 C.ar   59  TRP59       0.0001
    105  CH2       -4.5170   11.9250   15.3090 C.ar   59  TRP59       0.0015
    106  N         -7.8400   13.8630   13.9270 N.3    61  GLY61      -0.1210
    107  CA        -6.9320   13.5150   12.8520 C.3    61  GLY61       0.1956
    108  C         -7.5810   12.4790   11.9510 C.2    61  GLY61       0.2611
    109  O         -8.8050   12.3310   11.9490 O.2    61  GLY61      -0.2717
    110  N         -6.7740   11.7510   11.1880 N.am   62  LYS62      -0.1979
    111  CA        -7.3000   10.7350   10.2780 C.3    62  LYS62       0.1596
    112  C         -7.7920    9.5150   11.0560 C.2    62  LYS62       0.2287
    113  O         -7.2030    9.1510   12.0730 O.2    62  LYS62      -0.2864
    114  CB        -6.2080   10.2870    9.3050 C.3    62  LYS62       0.0298
    115  CG        -5.5360   11.4050    8.5330 C.3    62  LYS62       0.0038
    116  CD        -4.4420   10.8580    7.6290 C.3    62  LYS62       0.0206
    117  CE        -3.7580   11.9840    6.8640 C.3    62  LYS62       0.1093
    118  NZ        -2.8210   11.4630    5.8270 N.3    62  LYS62      -0.1314
    119  N         -8.0880    5.6700   11.8250 N.3    64  MET64      -0.1245
    120  CA        -7.0200    4.6860   11.6480 C.3    64  MET64       0.1570
    121  C         -6.9560    3.9400   10.3170 C.2    64  MET64       0.2261
    122  O         -5.8620    3.6390    9.8360 O.2    64  MET64      -0.2867
    123  CB        -7.0310    3.6910   12.8120 C.3    64  MET64       0.0387
    124  CG        -6.6730    4.3210   14.1590 C.3    64  MET64       0.0595
    125  SD        -5.0000    5.0620   14.1770 S.3    64  MET64      -0.1393
    126  CE        -5.3930    6.7550   13.8010 C.3    64  MET64       0.0692
    127  N         -5.5830    6.4100    7.6840 N.3    67  ALA67      -0.1231
    128  CA        -4.1870    6.6900    7.9930 C.3    67  ALA67       0.1694
    129  C         -3.1910    5.6480    7.4890 C.2    67  ALA67       0.2592
    130  O         -2.0810    5.9990    7.0820 O.2    67  ALA67      -0.2718
    131  CB        -4.0260    6.8510    9.4940 C.3    67  ALA67       0.0304
    132  N         -3.5880    4.3770    7.4910 N.am   68  HIS68      -0.1976
    133  CA        -2.6760    3.2970    7.1080 C.3    68  HIS68       0.1656
    134  C         -2.9200    2.4780    5.8490 C.2    68  HIS68       0.2291
    135  O         -1.9820    1.8740    5.3190 O.2    68  HIS68      -0.2864
    136  CB        -2.5700    2.2940    8.2650 C.3    68  HIS68       0.0771
    137  CG        -2.2570    2.9240    9.5850 C.ar   68  HIS68       0.0820
    138  ND1       -3.2310    3.4040   10.4360 N.ar   68  HIS68      -0.2267
    139  CD2       -1.0730    3.1780   10.1870 C.ar   68  HIS68       0.1154
    140  CE1       -2.6580    3.9290   11.5040 C.ar   68  HIS68       0.1986
    141  NE2       -1.3500    3.8060   11.3760 N.ar   68  HIS68      -0.2212
    142  N         -0.3530    2.5980    2.9400 N.3    71  LEU71      -0.1245
    143  CA         1.0580    2.3520    3.1890 C.3    71  LEU71       0.1561
    144  C          1.4640    1.0670    2.4810 C.2    71  LEU71       0.2260
    145  O          0.6890    0.1190    2.4290 O.2    71  LEU71      -0.2867
    146  CB         1.3200    2.2030    4.6860 C.3    71  LEU71       0.0270
    147  CG         1.0200    3.4530    5.5100 C.3    71  LEU71       0.0019
    148  CD1        1.1890    3.1210    6.9820 C.3    71  LEU71       0.0001
    149  CD2        1.9500    4.5890    5.0850 C.3    71  LEU71       0.0001
    150  N          0.1740   -3.3030    5.3300 N.3    75  LEU75      -0.1245
    151  CA         0.4480   -3.7330    6.6990 C.3    75  LEU75       0.1561
    152  C         -0.1140   -5.1030    7.0510 C.2    75  LEU75       0.2260
    153  O         -1.2070   -5.4780    6.6250 O.2    75  LEU75      -0.2867
    154  CB        -0.0930   -2.7030    7.7010 C.3    75  LEU75       0.0270
    155  CG         0.4340   -1.2660    7.6280 C.3    75  LEU75       0.0019
    156  CD1       -0.0770   -0.4760    8.8370 C.3    75  LEU75       0.0001
    157  CD2        1.9480   -1.2630    7.5960 C.3    75  LEU75       0.0001
    158  N          3.7150   -6.4010   11.3690 N.3    79  HIS79      -0.1226
    159  CA         3.9380   -4.9920   11.6730 C.3    79  HIS79       0.1752
    160  C          3.1270   -4.5580   12.8980 C.2    79  HIS79       0.2596
    161  O          3.6330   -3.8240   13.7480 O.2    79  HIS79      -0.2718
    162  CB         3.5540   -4.1220   10.4650 C.3    79  HIS79       0.0759
    163  CG         4.1430   -4.5900    9.1680 C.ar   79  HIS79       0.0818
    164  ND1        5.5000   -4.5740    8.9120 N.ar   79  HIS79      -0.2268
    165  CD2        3.5590   -5.1100    8.0640 C.ar   79  HIS79       0.1154
    166  CE1        5.7250   -5.0680    7.7050 C.ar   79  HIS79       0.1986
    167  NE2        4.5630   -5.4010    7.1700 N.ar   79  HIS79      -0.2212
    168  N          1.8770   -5.0080   12.9860 N.am   80  PHE80      -0.1976
    169  CA         1.0300   -4.6490   14.1180 C.3    80  PHE80       0.1639
    170  C          1.6500   -5.1620   15.4180 C.2    80  PHE80       0.2290
    171  O          1.7430   -4.4260   16.4040 O.2    80  PHE80      -0.2864
    172  CB        -0.3760   -5.2320   13.9640 C.3    80  PHE80       0.0560
    173  CG        -1.3680   -4.6470   14.9310 C.ar   80  PHE80      -0.0200
    174  CD1       -1.8850   -3.3700   14.7250 C.ar   80  PHE80      -0.0042
    175  CD2       -1.7310   -5.3420   16.0790 C.ar   80  PHE80      -0.0042
    176  CE1       -2.7490   -2.7840   15.6550 C.ar   80  PHE80      -0.0003
    177  CE2       -2.5980   -4.7650   17.0260 C.ar   80  PHE80      -0.0003
    178  CZ        -3.1050   -3.4830   16.8090 C.ar   80  PHE80      -0.0000
    179  N          4.7700   -3.0760   16.4360 N.3    83  VAL83      -0.1231
    180  CA         4.4380   -1.7940   17.0630 C.3    83  VAL83       0.1692
    181  C          3.8320   -1.9800   18.4520 C.2    83  VAL83       0.2591
    182  O          4.1480   -1.2280   19.3790 O.2    83  VAL83      -0.2718
    183  CB         3.4840   -0.9640   16.1650 C.3    83  VAL83       0.0266
    184  CG1        3.0430    0.3150   16.8890 C.3    83  VAL83       0.0020
    185  CG2        4.2070   -0.6010   14.8800 C.3    83  VAL83       0.0020
    186  N          2.9810   -2.9870   18.6070 N.am   84  ALA84      -0.1980
    187  CA         2.3600   -3.2530   19.9010 C.3    84  ALA84       0.1597
    188  C          3.4600   -3.6280   20.9030 C.2    84  ALA84       0.2287
    189  O          3.4510   -3.1750   22.0470 O.2    84  ALA84      -0.2864
    190  CB         1.3440   -4.3880   19.7720 C.3    84  ALA84       0.0319
    191  N          5.3250   -0.5860   22.1330 N.3    87  LEU87      -0.1245
    192  CA         4.5830    0.2210   23.1000 C.3    87  LEU87       0.1561
    193  C          4.5440   -0.4810   24.4530 C.2    87  LEU87       0.2260
    194  O          4.6670    0.1660   25.4900 O.2    87  LEU87      -0.2867
    195  CB         3.1520    0.4960   22.6300 C.3    87  LEU87       0.0270
    196  CG         2.3860    1.4450   23.5640 C.3    87  LEU87       0.0019
    197  CD1        3.1330    2.7720   23.6890 C.3    87  LEU87       0.0001
    198  CD2        0.9810    1.6830   23.0230 C.3    87  LEU87       0.0001
    199  N         -5.0140   -0.6630   22.4480 N.3   108  VAL108     -0.1245
    200  CA        -4.2480   -0.7960   21.2080 C.3   108  VAL108      0.1561
    201  C         -4.8430   -1.9000   20.3280 C.2   108  VAL108      0.2260
    202  O         -5.0120   -1.7180   19.1250 O.2   108  VAL108     -0.2867
    203  CB        -2.7680   -1.1350   21.4970 C.3   108  VAL108      0.0252
    204  CG1       -2.0520   -1.5040   20.1980 C.3   108  VAL108      0.0019
    205  CG2       -2.0900    0.0490   22.1490 C.3   108  VAL108      0.0019
    206  N         -7.7410   -1.2680   17.8910 N.3   111  THR111     -0.1218
    207  CA        -7.5120   -0.5220   16.6590 C.3   111  THR111      0.1862
    208  C         -7.0960   -1.4230   15.5020 C.2   111  THR111      0.2287
    209  O         -7.0800   -0.9790   14.3580 O.2   111  THR111     -0.2866
    210  CB        -6.3950    0.5390   16.8270 C.3   111  THR111      0.1770
    211  OG1       -5.1210   -0.1150   16.9560 O.3   111  THR111     -0.2211
    212  CG2       -6.6550    1.3950   18.0660 C.3   111  THR111      0.0375
    213  N         -6.5850   -0.3060   11.5630 N.3   115  VAL115     -0.1231
    214  CA        -5.1880   -0.0570   11.2280 C.3   115  VAL115      0.1692
    215  C         -4.7030   -0.9750   10.1110 C.2   115  VAL115      0.2591
    216  O         -3.9670   -0.5450    9.2170 O.2   115  VAL115     -0.2718
    217  CB        -4.2850   -0.2300   12.4810 C.3   115  VAL115      0.0266
    218  CG1       -2.8060   -0.3300   12.0850 C.3   115  VAL115      0.0020
    219  CG2       -4.5120    0.9500   13.4280 C.3   115  VAL115      0.0020
    220  N         -5.1280   -2.2310   10.1530 N.am  116  LEU116     -0.1980
    221  CA        -4.7220   -3.1960    9.1450 C.3   116  LEU116      0.1596
    222  C         -5.6480   -3.2200    7.9310 C.2   116  LEU116      0.2287
    223  O         -5.4800   -4.0550    7.0330 O.2   116  LEU116     -0.2864
    224  CB        -4.6010   -4.5960    9.7700 C.3   116  LEU116      0.0297
    225  CG        -3.4860   -4.6990   10.8220 C.3   116  LEU116      0.0022
    226  CD1       -3.3700   -6.1410   11.3230 C.3   116  LEU116      0.0001
    227  CD2       -2.1610   -4.2370   10.2310 C.3   116  LEU116      0.0001
@<TRIPOS>BOND
     1    38    36   am
     2    37    36    2
     3   145   144    2
     4    36    35    1
     5   144   143    1
     6   142   143    1
     7   143   146    1
     8    35    32    1
     9   146   147    1
    10    32    31    1
    11    32    33    1
    12   149   147    1
    13   135   134    2
    14   150   151    1
    15    19    18    1
    16    17    18   ar
    17    17    15   ar
    18   147   148    1
    19    34    33    2
    20   118   117    1
    21   134   133    1
    22    18    16   ar
    23    33    39   am
    24    15    13   ar
    25    11    10    2
    26   153   152    2
    27   151   152    1
    28   151   154    1
    29     9     8    1
    30     9    10    1
    31     9    12    1
    32   117   116    1
    33    16    14   ar
    34    13    14   ar
    35    13    12    1
    36   223   222    2
    37   130   129    2
    38   133   132    1
    39   133   136    1
    40    10    20   am
    41   167   166   ar
    42   167   165   ar
    43    39    40    1
    44   129   132   am
    45   129   128    1
    46   157   155    1
    47   155   154    1
    48   155   156    1
    49   116   115    1
    50   127   128    1
    51   166   164   ar
    52    22    23    2
    53    22    21    1
    54   222   221    1
    55   128   131    1
    56    20    21    1
    57   165   163   ar
    58    44    43    1
    59    40    43    1
    60    40    41    1
    61   136   137    1
    62    21    24    1
    63   115   114    1
    64   164   163   ar
    65    43    45    1
    66   221   224    1
    67   221   220    1
    68   163   162    1
    69   216   215    2
    70    41    42    2
    71   114   111    1
    72   137   139   ar
    73   137   138   ar
    74   224   225    1
    75   122   121    2
    76     4     3    2
    77    24    25    1
    78   215   220   am
    79   215   214    1
    80   139   141   ar
    81   227   225    1
    82   111   112    1
    83   111   110    1
    84     3     2    1
    85    63    62    1
    86   121   120    1
    87   138   140   ar
    88   162   159    1
    89     2     1    1
    90     2     5    1
    91    25    26   ar
    92    25    27   ar
    93   225   226    1
    94    26    28   ar
    95   112   113    2
    96   110   108   am
    97   214   213    1
    98   214   217    1
    99    27    29   ar
   100   158   159    1
   101   141   140   ar
   102   120   119    1
   103   120   123    1
   104   159   160    1
   105    62    61    1
   106    28    30   ar
   107     5     6    1
   108     5     7    1
   109   109   108    2
   110   108   107    1
   111    29    30   ar
   112   218   217    1
   113    53    52    2
   114   217   219    1
   115    61    60    1
   116   123   124    1
   117   107   106    1
   118   160   168   am
   119   160   161    2
   120   168   169    1
   121    52    54   am
   122    52    51    1
   123   126   125    1
   124    51    50    1
   125    50    47    1
   126   172   169    1
   127   172   173    1
   128    60    59    1
   129   169   170    1
   130   124   125    1
   131    46    47    1
   132   209   208    2
   133    47    48    1
   134   103   101   ar
   135   103   105   ar
   136   174   173   ar
   137   174   176   ar
   138   100   101   ar
   139   100    98   ar
   140   185   183    1
   141   173   175   ar
   142    59    56    1
   143   101    99   ar
   144   105   104   ar
   145   170   171    2
   146   208   207    1
   147    98    97   ar
   148   176   178   ar
   149    48    49    2
   150    95    94    2
   151   175   177   ar
   152   183   184    1
   153   183   180    1
   154    99    97   ar
   155    99   102   ar
   156   179   180    1
   157    56    55    1
   158    56    57    1
   159   104   102   ar
   160    94    93    1
   161    97    96    1
   162   207   210    1
   163   207   206    1
   164   178   177   ar
   165   210   211    1
   166   210   212    1
   167   180   181    1
   168    72    70   am
   169    57    64   am
   170    57    58    2
   171    81    79   ar
   172    81    83   ar
   173    79    78   ar
   174    64    65    1
   175    83    82   ar
   176    96    93    1
   177    93    92    1
   178    78    77    1
   179    78    80   ar
   180    77    74    1
   181    70    71    2
   182    70    69    1
   183    82    80   ar
   184    65    68    1
   185    65    66    1
   186   181   186   am
   187   181   182    2
   188    68    69    1
   189   186   187    1
   190   202   201    2
   191    74    73    1
   192    74    75    1
   193   190   187    1
   194    66    67    2
   195   187   188    1
   196   204   203    1
   197   201   200    1
   198    75    76    2
   199    75    84   am
   200   188   189    2
   201   200   203    1
   202   200   199    1
   203    84    85    1
   204   203   205    1
   205    91    89    1
   206    89    90    1
   207    89    88    1
   208   191   192    1
   209    85    88    1
   210    85    86    1
   211   195   192    1
   212   195   196    1
   213   198   196    1
   214   192   193    1
   215   196   197    1
   216    86    87    2
   217   193   194    2
