@<TRIPOS>MOLECULE
tmp/1dm2A00.pdb
 157 151 0 0 0
SMALL
GASTEIGER

@<TRIPOS>ATOM
      1  N         26.7780   23.1890   32.6480 N.3    10  ILE10      -0.1231
      2  CA        25.6720   23.6140   31.8020 C.3    10  ILE10       0.1692
      3  C         25.9550   23.3840   30.3260 C.2    10  ILE10       0.2593
      4  O         25.4570   24.1140   29.4630 O.2    10  ILE10      -0.2718
      5  CB        25.3280   25.0990   32.0360 C.3    10  ILE10       0.0266
      6  CG1       26.5380   25.9820   31.7190 C.3    10  ILE10       0.0019
      7  CG2       24.8800   25.2950   33.4820 C.3    10  ILE10       0.0020
      8  CD1       26.2890   27.4890   31.8820 C.3    10  ILE10       0.0001
      9  N         26.7580   22.3630   30.0400 N.am   11  GLY11      -0.1942
     10  CA        27.0800   22.0480   28.6600 C.3    11  GLY11       0.2014
     11  C         28.5540   21.9070   28.3160 C.2    11  GLY11       0.2639
     12  O         29.4370   22.0890   29.1570 O.2    11  GLY11      -0.2714
     13  N         28.8100   21.5620   27.0590 N.am   12  GLU12      -0.1963
     14  CA        30.1670   21.4030   26.5670 C.3    12  GLU12       0.1733
     15  C         30.3120   22.1630   25.2550 C.2    12  GLU12       0.2616
     16  O         29.8220   21.7280   24.2080 O.2    12  GLU12      -0.2715
     17  CB        30.5120   19.9190   26.3630 C.3    12  GLU12       0.0429
     18  CG        29.3420   19.0270   25.9510 C.3    12  GLU12       0.1163
     19  CD        29.7060   17.5380   25.9270 C.2    12  GLU12       0.3649
     20  OE1       30.1320   17.0010   26.9760 O.co2  12  GLU12      -0.2457
     21  OE2       29.5630   16.9020   24.8560 O.co2  12  GLU12      -0.2457
     22  N         30.9690   23.3180   25.3330 N.am   13  GLY13      -0.1955
     23  CA        31.1970   24.1350   24.1580 C.3    13  GLY13       0.1869
     24  C         32.0920   23.3850   23.1970 C.2    13  GLY13       0.2309
     25  O         32.6540   22.3420   23.5350 O.2    13  GLY13      -0.2863
     26  N         31.7070   24.0980   29.6280 N.3    18  VAL18      -0.1245
     27  CA        31.0920   25.2890   30.2190 C.3    18  VAL18       0.1561
     28  C         30.3370   24.9790   31.5120 C.2    18  VAL18       0.2260
     29  O         29.5110   24.0710   31.5560 O.2    18  VAL18      -0.2867
     30  CB        30.1000   25.9550   29.2410 C.3    18  VAL18       0.0252
     31  CG1       29.6690   27.2960   29.7940 C.3    18  VAL18       0.0019
     32  CG2       30.7350   26.1330   27.8660 C.3    18  VAL18       0.0019
     33  N         28.8680   32.2670   33.5380 N.3    31  ALA31      -0.1245
     34  CA        29.1220   31.0350   32.8030 C.3    31  ALA31       0.1562
     35  C         30.6200   31.0010   32.5420 C.2    31  ALA31       0.2260
     36  O         31.1760   31.9450   31.9920 O.2    31  ALA31      -0.2867
     37  CB        28.3630   31.0410   31.4930 C.3    31  ALA31       0.0290
     38  N         33.9410   29.0520   30.8300 N.3    33  LYS33      -0.1245
     39  CA        34.3190   28.0930   29.8090 C.3    33  LYS33       0.1561
     40  C         35.7850   27.7420   30.0120 C.2    33  LYS33       0.2260
     41  O         36.6620   28.5950   29.9400 O.2    33  LYS33      -0.2867
     42  CB        34.0940   28.6740   28.4080 C.3    33  LYS33       0.0271
     43  CG        34.3360   27.6880   27.2660 C.3    33  LYS33       0.0035
     44  CD        33.9370   28.2800   25.9200 C.3    33  LYS33       0.0206
     45  CE        33.5750   27.1980   24.9110 C.3    33  LYS33       0.1093
     46  NZ        33.7240   27.6710   23.4980 N.3    33  LYS33      -0.1314
     47  N         26.4120   37.4520   23.4480 N.3    55  VAL55      -0.1245
     48  CA        26.6240   37.0810   24.8440 C.3    55  VAL55       0.1561
     49  C         27.8380   37.8450   25.3380 C.2    55  VAL55       0.2260
     50  O         28.9060   37.7670   24.7400 O.2    55  VAL55      -0.2867
     51  CB        26.9010   35.5720   24.9940 C.3    55  VAL55       0.0252
     52  CG1       27.2250   35.2450   26.4270 C.3    55  VAL55       0.0019
     53  CG2       25.6990   34.7810   24.5560 C.3    55  VAL55       0.0019
     54  N         31.5610   34.4110   31.0360 N.3    71  PHE71      -0.1227
     55  CA        30.4700   34.9860   30.2540 C.3    71  PHE71       0.1736
     56  C         29.2530   35.3150   31.0970 C.2    71  PHE71       0.2595
     57  O         29.1100   34.8320   32.2170 O.2    71  PHE71      -0.2718
     58  CB        30.0140   33.9990   29.1770 C.3    71  PHE71       0.0547
     59  CG        31.0160   33.7560   28.1010 C.ar   71  PHE71      -0.0202
     60  CD1       31.1090   34.6150   27.0160 C.ar   71  PHE71      -0.0042
     61  CD2       31.8250   32.6300   28.1340 C.ar   71  PHE71      -0.0042
     62  CE1       31.9870   34.3550   25.9720 C.ar   71  PHE71      -0.0003
     63  CE2       32.7060   32.3620   27.0970 C.ar   71  PHE71      -0.0003
     64  CZ        32.7850   33.2280   26.0090 C.ar   71  PHE71      -0.0000
     65  N         28.3720   36.1370   30.5340 N.am   72  GLU72      -0.1965
     66  CA        27.1360   36.4850   31.2060 C.3    72  GLU72       0.1733
     67  C         26.3270   35.1870   31.1290 C.2    72  GLU72       0.2616
     68  O         26.4400   34.4470   30.1530 O.2    72  GLU72      -0.2715
     69  CB        26.4310   37.6320   30.4660 C.3    72  GLU72       0.0429
     70  CG        25.9100   37.2760   29.0900 C.3    72  GLU72       0.1163
     71  CD        24.8560   38.2500   28.5860 C.2    72  GLU72       0.3649
     72  OE1       23.7590   38.3090   29.1760 O.co2  72  GLU72      -0.2457
     73  OE2       25.1210   38.9580   27.5950 O.co2  72  GLU72      -0.2457
     74  N         25.5300   34.9010   32.1520 N.am   73  PHE73      -0.1960
     75  CA        24.7450   33.6700   32.1900 C.3    73  PHE73       0.1771
     76  C         23.3300   33.7980   31.6610 C.2    73  PHE73       0.2619
     77  O         22.5760   34.6730   32.0820 O.2    73  PHE73      -0.2715
     78  CB        24.6860   33.1480   33.6180 C.3    73  PHE73       0.0574
     79  CG        23.8420   31.9290   33.7850 C.ar   73  PHE73      -0.0200
     80  CD1       24.3070   30.6820   33.3680 C.ar   73  PHE73      -0.0042
     81  CD2       22.5980   32.0100   34.3940 C.ar   73  PHE73      -0.0042
     82  CE1       23.5510   29.5320   33.5540 C.ar   73  PHE73      -0.0003
     83  CE2       21.8210   30.8530   34.5890 C.ar   73  PHE73      -0.0003
     84  CZ        22.3010   29.6150   34.1680 C.ar   73  PHE73      -0.0000
     85  N         22.9940   32.9110   30.7280 N.am   74  LEU74      -0.1963
     86  CA        21.6690   32.8200   30.1120 C.3    74  LEU74       0.1728
     87  C         21.2630   31.3890   30.4470 C.2    74  LEU74       0.2616
     88  O         22.0550   30.4570   30.2650 O.2    74  LEU74      -0.2715
     89  CB        21.7450   32.9730   28.5890 C.3    74  LEU74       0.0311
     90  CG        21.8070   34.3320   27.8940 C.3    74  LEU74       0.0022
     91  CD1       20.6130   35.1630   28.2710 C.3    74  LEU74       0.0001
     92  CD2       23.0900   35.0320   28.2600 C.3    74  LEU74       0.0001
     93  N         20.0420   31.2000   30.9280 N.am   75  HIS75      -0.1959
     94  CA        19.6060   29.8650   31.3170 C.3    75  HIS75       0.1787
     95  C         19.4610   28.8740   30.1830 C.2    75  HIS75       0.2620
     96  O         20.0530   27.7930   30.2150 O.2    75  HIS75      -0.2715
     97  CB        18.2810   29.9360   32.0740 C.3    75  HIS75       0.0785
     98  CG        18.3830   30.6070   33.4090 C.ar   75  HIS75       0.0821
     99  ND1       18.5460   31.9700   33.5470 N.ar   75  HIS75      -0.2267
    100  CD2       18.3270   30.1040   34.6660 C.ar   75  HIS75       0.1154
    101  CE1       18.5870   32.2790   34.8310 C.ar   75  HIS75       0.1986
    102  NE2       18.4560   31.1650   35.5300 N.ar   75  HIS75      -0.2212
    103  N         18.6940   29.2540   29.1690 N.am   76  GLN76      -0.1963
    104  CA        18.4190   28.3680   28.0480 C.3    76  GLN76       0.1733
    105  C         19.0350   28.7000   26.6830 C.2    76  GLN76       0.2616
    106  O         19.3060   29.8530   26.3700 O.2    76  GLN76      -0.2715
    107  CB        16.8970   28.2600   27.8990 C.3    76  GLN76       0.0408
    108  CG        16.4200   27.0550   27.1150 C.3    76  GLN76       0.0908
    109  CD        15.1760   26.4360   27.7150 C.2    76  GLN76       0.2608
    110  OE1       14.1920   26.1910   27.0140 O.2    76  GLN76      -0.2717
    111  NE2       15.2100   26.1830   29.0210 N.am   76  GLN76      -0.0878
    112  N         19.2530   27.6600   25.8790 N.am   77  ASP77      -0.1971
    113  CA        19.7720   27.8190   24.5270 C.3    77  ASP77       0.1709
    114  C         18.6270   27.4510   23.5780 C.2    77  ASP77       0.2293
    115  O         17.6610   26.8030   23.9920 O.2    77  ASP77      -0.2864
    116  CB        20.9900   26.9220   24.2910 C.3    77  ASP77       0.1436
    117  CG        20.6600   25.4510   24.3490 C.2    77  ASP77       0.3671
    118  OD1       19.6760   25.0270   23.7180 O.co2  77  ASP77      -0.2456
    119  OD2       21.3940   24.7090   25.0220 O.co2  77  ASP77      -0.2456
    120  N         22.3050   25.4310   19.3760 N.3   122  GLN122     -0.1231
    121  CA        22.9860   25.2240   20.6470 C.3   122  GLN122      0.1698
    122  C         23.7800   26.4390   21.1250 C.2   122  GLN122      0.2592
    123  O         23.8930   26.6450   22.3280 O.2   122  GLN122     -0.2718
    124  CB        23.9730   24.0710   20.5350 C.3   122  GLN122      0.0381
    125  CG        23.4680   22.7140   20.9220 C.3   122  GLN122      0.0905
    126  CD        24.4020   21.6340   20.4120 C.2   122  GLN122      0.2608
    127  OE1       24.1630   21.0370   19.3580 O.2   122  GLN122     -0.2717
    128  NE2       25.4880   21.3890   21.1490 N.am  122  GLN122     -0.0878
    129  N         24.3630   27.2110   20.1990 N.am  123  ASN123     -0.1974
    130  CA        25.1600   28.3960   20.5280 C.3   123  ASN123      0.1688
    131  C         24.3510   29.6900   20.4740 C.2   123  ASN123      0.2292
    132  O         24.9110   30.7530   20.2260 O.2   123  ASN123     -0.2864
    133  CB        26.3380   28.5360   19.5560 C.3   123  ASN123      0.1181
    134  CG        27.2730   27.3520   19.5920 C.2   123  ASN123      0.2629
    135  OD1       27.2310   26.5400   20.5130 O.2   123  ASN123     -0.2716
    136  ND2       28.1320   27.2480   18.5840 N.am  123  ASN123     -0.0877
    137  N         21.5990   31.7470   22.7690 N.3   125  LEU125     -0.1245
    138  CA        20.9870   31.7680   24.0970 C.3   125  LEU125      0.1561
    139  C         19.8320   32.7390   24.2670 C.2   125  LEU125      0.2260
    140  O         19.8450   33.8420   23.7330 O.2   125  LEU125     -0.2867
    141  CB        22.0690   32.0460   25.1340 C.3   125  LEU125      0.0270
    142  CG        23.3470   31.2490   24.8550 C.3   125  LEU125      0.0019
    143  CD1       24.4590   31.7300   25.7620 C.3   125  LEU125      0.0001
    144  CD2       23.0750   29.7650   25.0570 C.3   125  LEU125      0.0001
    145  N         26.5640   33.0420   20.8190 N.3   135  ALA135     -0.1231
    146  CA        27.5790   32.5500   21.7290 C.3   135  ALA135      0.1694
    147  C         28.4800   31.5860   20.9790 C.2   135  ALA135      0.2592
    148  O         28.1400   31.1510   19.8790 O.2   135  ALA135     -0.2718
    149  CB        26.9190   31.8480   22.8790 C.3   135  ALA135      0.0304
    150  N         29.6350   31.2750   21.5620 N.am  136  ASP136     -0.1974
    151  CA        30.5720   30.3200   20.9750 C.3   136  ASP136      0.1709
    152  C         31.1190   30.6820   19.5980 C.2   136  ASP136      0.2293
    153  O         30.9440   29.9260   18.6460 O.2   136  ASP136     -0.2864
    154  CB        29.8990   28.9400   20.8940 C.3   136  ASP136      0.1436
    155  CG        30.8780   27.7910   21.0510 C.2   136  ASP136      0.3671
    156  OD1       32.1010   28.0300   20.9670 O.co2 136  ASP136     -0.2456
    157  OD2       30.4160   26.6450   21.2590 O.co2 136  ASP136     -0.2456
@<TRIPOS>BOND
     1   136   134   am
     2   153   152    2
     3   127   126    2
     4   120   121    1
     5   133   134    1
     6   133   130    1
     7   134   135    2
     8   152   151    1
     9   148   147    2
    10   129   130    1
    11   129   122   am
    12   132   131    2
    13   126   125    1
    14   126   128   am
    15   131   130    1
    16   124   121    1
    17   124   125    1
    18   121   122    1
    19   145   146    1
    20   154   151    1
    21   154   155    1
    22   156   155   ar
    23   151   150    1
    24   147   150   am
    25   147   146    1
    26   155   157   ar
    27   122   123    2
    28   146   149    1
    29   137   138    1
    30    24    25    2
    31    24    23    1
    32    47    48    1
    33    46    45    1
    34   114   115    2
    35   114   113    1
    36   118   117   ar
    37   140   139    2
    38   138   139    1
    39   138   141    1
    40    23    22    1
    41    16    15    2
    42   116   117    1
    43   116   113    1
    44   117   119   ar
    45   113   112    1
    46    53    51    1
    47    50    49    2
    48    48    51    1
    49    48    49    1
    50   142   144    1
    51   142   141    1
    52   142   143    1
    53    21    19   ar
    54    45    44    1
    55    51    52    1
    56    15    22   am
    57    15    14    1
    58   112   105   am
    59    44    43    1
    60    19    18    1
    61    19    20   ar
    62    18    17    1
    63    62    64   ar
    64    62    60   ar
    65    64    63   ar
    66    17    14    1
    67   106   105    2
    68    14    13    1
    69   105   104    1
    70   110   109    2
    71    60    59   ar
    72    13    11   am
    73    63    61   ar
    74   108   109    1
    75   108   107    1
    76    43    42    1
    77    73    71   ar
    78   109   111   am
    79    32    30    1
    80    90    92    1
    81    90    91    1
    82    90    89    1
    83   107   104    1
    84   104   103    1
    85    59    61   ar
    86    59    58    1
    87    11    10    1
    88    11    12    2
    89    42    39    1
    90    71    70    1
    91    71    72   ar
    92    89    86    1
    93    10     9    1
    94    70    69    1
    95   103    95   am
    96    58    55    1
    97    30    31    1
    98    30    27    1
    99     4     3    2
   100    26    27    1
   101    39    40    1
   102    39    38    1
   103    41    40    2
   104     9     3   am
   105    86    87    1
   106    86    85    1
   107    68    67    2
   108    95    96    2
   109    95    94    1
   110    27    28    1
   111    55    54    1
   112    55    56    1
   113    88    87    2
   114     3     2    1
   115    87    93   am
   116    69    66    1
   117    65    56   am
   118    65    66    1
   119    85    76   am
   120    93    94    1
   121    56    57    2
   122    67    66    1
   123    67    74   am
   124    94    97    1
   125    37    34    1
   126    28    29    2
   127    76    77    2
   128    76    75    1
   129     6     8    1
   130     6     5    1
   131     2     5    1
   132     2     1    1
   133    36    35    2
   134     5     7    1
   135    97    98    1
   136    74    75    1
   137    75    78    1
   138    35    34    1
   139    34    33    1
   140    80    82   ar
   141    80    79   ar
   142    98    99   ar
   143    98   100   ar
   144    99   101   ar
   145    82    84   ar
   146    78    79    1
   147    79    81   ar
   148    84    83   ar
   149    81    83   ar
   150   100   102   ar
   151   101   102   ar
