@<TRIPOS>MOLECULE
tmp/1dm6B03.pdb
 127 126 0 0 0
SMALL
GASTEIGER

@<TRIPOS>ATOM
      1  N          7.9850    9.2270   62.7050 N.3   118  CYS118     -0.1235
      2  CA         7.2330   10.2330   63.4540 C.3   118  CYS118      0.1677
      3  C          7.5460   11.6720   63.0340 C.2   118  CYS118      0.2270
      4  O          8.6690   12.1490   63.2020 O.2   118  CYS118     -0.2867
      5  CB         7.4870   10.0780   64.9560 C.3   118  CYS118      0.0956
      6  SG         6.4330   11.1710   65.9520 S.3   118  CYS118     -0.0801
      7  N         -4.7320    0.3950   70.0160 N.3   181  GLN181     -0.1245
      8  CA        -4.8470    1.7490   70.5530 C.3   181  GLN181      0.1566
      9  C         -5.7800    1.6810   71.7570 C.2   181  GLN181      0.2260
     10  O         -6.6690    0.8290   71.8110 O.2   181  GLN181     -0.2867
     11  CB        -5.4210    2.7280   69.5170 C.3   181  GLN181      0.0367
     12  CG        -4.4450    3.1850   68.4240 C.3   181  GLN181      0.0905
     13  CD        -5.0080    4.3240   67.5720 C.2   181  GLN181      0.2608
     14  OE1       -5.5960    5.2710   68.0900 O.2   181  GLN181     -0.2717
     15  NE2       -4.8110    4.2410   66.2610 N.am  181  GLN181     -0.0878
     16  N         -4.8840    9.8160   70.5230 N.3   268  PRO268     -0.2116
     17  CA        -4.2540    8.7610   69.7240 C.3   268  PRO268      0.1372
     18  C         -3.1790    8.0960   70.6000 C.2   268  PRO268      0.2244
     19  O         -2.0540    8.5850   70.7020 O.2   268  PRO268     -0.2868
     20  CB        -3.6660    9.5330   68.5470 C.3   268  PRO268      0.0268
     21  CG        -3.2030   10.8010   69.1880 C.3   268  PRO268      0.0207
     22  CD        -4.3140   11.1400   70.1950 C.3   268  PRO268      0.0892
     23  N         -1.1950    4.7170   71.0070 N.3   270  VAL270     -0.1245
     24  CA        -0.7270    3.4440   70.4820 C.3   270  VAL270      0.1561
     25  C         -0.2940    2.5640   71.6400 C.2   270  VAL270      0.2260
     26  O          0.4960    2.9910   72.4850 O.2   270  VAL270     -0.2867
     27  CB         0.4470    3.6770   69.5420 C.3   270  VAL270      0.0252
     28  CG1        0.9230    2.3700   68.9600 C.3   270  VAL270      0.0019
     29  CG2        0.0130    4.6560   68.4580 C.3   270  VAL270      0.0019
     30  N          0.3190   -1.2190   71.1120 N.3   272  ASN272     -0.1225
     31  CA         0.8130   -2.5370   70.6920 C.3   272  ASN272      0.1785
     32  C          2.2910   -2.5610   70.3110 C.2   272  ASN272      0.2597
     33  O          2.8020   -3.5860   69.8500 O.2   272  ASN272     -0.2718
     34  CB        -0.0070   -3.0730   69.5110 C.3   272  ASN272      0.1169
     35  CG         0.0940   -2.1950   68.2760 C.2   272  ASN272      0.2627
     36  OD1       -0.3900   -2.5620   67.2040 O.2   272  ASN272     -0.2716
     37  ND2        0.7170   -1.0280   68.4180 N.am  272  ASN272     -0.0877
     38  N          2.9830   -1.4430   70.5010 N.am  273  MET273     -0.1979
     39  CA         4.3960   -1.3990   70.1480 C.3   273  MET273      0.1605
     40  C          5.3100   -1.6960   71.3240 C.2   273  MET273      0.2287
     41  O          4.9530   -1.4820   72.4820 O.2   273  MET273     -0.2864
     42  CB         4.7470   -0.0440   69.5300 C.3   273  MET273      0.0413
     43  CG         4.1340    0.1610   68.1530 C.3   273  MET273      0.0598
     44  SD         4.8200    1.5880   67.2990 S.3   273  MET273     -0.1393
     45  CE         6.3310    0.9080   66.6530 C.3   273  MET273      0.0692
     46  N          1.7320    4.8580   74.4390 N.3   287  PHE287     -0.1227
     47  CA         2.1790    6.2390   74.3280 C.3   287  PHE287      0.1736
     48  C          1.1820    7.0640   73.5290 C.2   287  PHE287      0.2596
     49  O          0.4690    6.5430   72.6720 O.2   287  PHE287     -0.2718
     50  CB         3.5740    6.2970   73.6860 C.3   287  PHE287      0.0547
     51  CG         3.6440    5.7100   72.2950 C.ar  287  PHE287     -0.0202
     52  CD1        3.1480    6.4100   71.1990 C.ar  287  PHE287     -0.0042
     53  CD2        4.2390    4.4690   72.0820 C.ar  287  PHE287     -0.0042
     54  CE1        3.2490    5.8800   69.9020 C.ar  287  PHE287     -0.0003
     55  CE2        4.3440    3.9340   70.7960 C.ar  287  PHE287     -0.0003
     56  CZ         3.8490    4.6440   69.7060 C.ar  287  PHE287     -0.0000
     57  N          1.1430    8.3600   73.8130 N.am  288  SER288     -0.1938
     58  CA         0.2150    9.2470   73.1390 C.3   288  SER288      0.2055
     59  C          0.7170   10.6850   73.0760 C.2   288  SER288      0.2644
     60  O          1.5570   11.1060   73.8710 O.2   288  SER288     -0.2714
     61  CB        -1.1370    9.2250   73.8610 C.3   288  SER288      0.2130
     62  OG        -1.0050    9.6820   75.2030 O.3   288  SER288     -0.2179
     63  N          0.1880   11.4170   72.1030 N.am  289  GLY289     -0.1939
     64  CA         0.5060   12.8220   71.9170 C.3   289  GLY289      0.2014
     65  C         -0.8170   13.3930   71.4380 C.2   289  GLY289      0.2639
     66  O         -1.8020   13.4000   72.1790 O.2   289  GLY289     -0.2714
     67  N         -0.8530   13.8670   70.1990 N.am  290  TRP290     -0.1959
     68  CA        -2.0920   14.3760   69.6330 C.3   290  TRP290      0.1771
     69  C         -2.0810   14.0850   68.1410 C.2   290  TRP290      0.2619
     70  O         -1.0350   13.8030   67.5680 O.2   290  TRP290     -0.2715
     71  CB        -2.2790   15.8770   69.9240 C.3   290  TRP290      0.0590
     72  CG        -1.1400   16.7770   69.5360 C.ar  290  TRP290      0.0006
     73  CD1       -0.8600   17.2650   68.2900 C.ar  290  TRP290      0.0946
     74  CD2       -0.1360   17.3030   70.4080 C.ar  290  TRP290      0.0152
     75  NE1        0.2590   18.0660   68.3340 N.ar  290  TRP290     -0.2442
     76  CE2        0.7260   18.1030   69.6200 C.ar  290  TRP290      0.0810
     77  CE3        0.1240   17.1730   71.7820 C.ar  290  TRP290      0.0012
     78  CZ2        1.8290   18.7740   70.1610 C.ar  290  TRP290      0.0191
     79  CZ3        1.2170   17.8390   72.3200 C.ar  290  TRP290      0.0001
     80  CH2        2.0590   18.6300   71.5070 C.ar  290  TRP290      0.0015
     81  N         -3.2580   14.1320   67.5320 N.am  291  TYR291     -0.1974
     82  CA        -3.4350   13.8590   66.1130 C.3   291  TYR291      0.1639
     83  C         -2.9640   14.9480   65.1580 C.2   291  TYR291      0.2290
     84  O         -2.9260   16.1330   65.4950 O.2   291  TYR291     -0.2864
     85  CB        -4.9260   13.6190   65.8110 C.3   291  TYR291      0.0560
     86  CG        -5.3930   12.1850   65.9130 C.ar  291  TYR291     -0.0198
     87  CD1       -4.9620   11.2300   64.9990 C.ar  291  TYR291     -0.0009
     88  CD2       -6.2770   11.7870   66.9160 C.ar  291  TYR291     -0.0009
     89  CE1       -5.3930    9.9070   65.0710 C.ar  291  TYR291      0.0417
     90  CE2       -6.7200   10.4670   67.0090 C.ar  291  TYR291      0.0417
     91  CZ        -6.2700    9.5410   66.0780 C.ar  291  TYR291      0.1957
     92  OH        -6.6960    8.2350   66.1420 O.3   291  TYR291     -0.2866
     93  N         -4.4070   12.1410   59.6990 N.3   295  GLU295     -0.1245
     94  CA        -4.5760   10.7760   60.2130 C.3   295  GLU295      0.1567
     95  C         -6.0670   10.4270   60.2680 C.2   295  GLU295      0.2260
     96  O         -6.4750    9.3140   59.9320 O.2   295  GLU295     -0.2867
     97  CB        -3.9630   10.6410   61.6170 C.3   295  GLU295      0.0388
     98  CG        -2.4440   10.8600   61.6950 C.3   295  GLU295      0.1160
     99  CD        -1.9140   10.7790   63.1280 C.2   295  GLU295      0.3649
    100  OE1       -1.6640   11.8380   63.7530 O.co2 295  GLU295     -0.2457
    101  OE2       -1.7630    9.6460   63.6350 O.co2 295  GLU295     -0.2457
    102  N          6.7400    8.0560   55.2240 N.3   381  TRP381     -0.1241
    103  CA         5.8770    8.3090   56.3710 C.3   381  TRP381      0.1605
    104  C          5.8730    9.7630   56.8210 C.2   381  TRP381      0.2264
    105  O          4.8670   10.2550   57.3300 O.2   381  TRP381     -0.2867
    106  CB         6.2790    7.4050   57.5440 C.3   381  TRP381      0.0550
    107  CG         5.9360    5.9650   57.3090 C.ar  381  TRP381      0.0003
    108  CD1        6.4430    5.1480   56.3400 C.ar  381  TRP381      0.0946
    109  CD2        4.9630    5.1870   58.0210 C.ar  381  TRP381      0.0152
    110  NE1        5.8410    3.9120   56.4010 N.ar  381  TRP381     -0.2442
    111  CE2        4.9290    3.9090   57.4220 C.ar  381  TRP381      0.0810
    112  CE3        4.1170    5.4500   59.1050 C.ar  381  TRP381      0.0012
    113  CZ2        4.0780    2.8870   57.8720 C.ar  381  TRP381      0.0191
    114  CZ3        3.2660    4.4280   59.5570 C.ar  381  TRP381      0.0001
    115  CH2        3.2560    3.1630   58.9360 C.ar  381  TRP381      0.0015
    116  N          7.8170   -3.0200   66.3980 N.3   409  TYR409     -0.1241
    117  CA         6.6220   -3.8400   66.3140 C.3   409  TYR409      0.1605
    118  C          6.9020   -5.1840   66.9530 C.2   409  TYR409      0.2264
    119  O          8.0550   -5.6280   67.0100 O.2   409  TYR409     -0.2867
    120  CB         6.2350   -4.0800   64.8650 C.3   409  TYR409      0.0534
    121  CG         5.8180   -2.8450   64.1490 C.ar  409  TYR409     -0.0201
    122  CD1        6.6040   -2.3090   63.1380 C.ar  409  TYR409     -0.0009
    123  CD2        4.6160   -2.2190   64.4620 C.ar  409  TYR409     -0.0009
    124  CE1        6.2070   -1.1880   62.4440 C.ar  409  TYR409      0.0417
    125  CE2        4.1980   -1.0920   63.7820 C.ar  409  TYR409      0.0417
    126  CZ         5.0000   -0.5950   62.7700 C.ar  409  TYR409      0.1957
    127  OH         4.5570    0.4690   62.0310 O.3   409  TYR409     -0.2866
@<TRIPOS>BOND
     1   102   103    1
     2   108   110   ar
     3   108   107   ar
     4   103   104    1
     5   103   106    1
     6   110   111   ar
     7   104   105    2
     8   107   106    1
     9   107   109   ar
    10   111   113   ar
    11   111   109   ar
    12   113   115   ar
    13   109   112   ar
    14   115   114   ar
    15   112   114   ar
    16    93    94    1
    17    96    95    2
    18    94    95    1
    19    94    97    1
    20    97    98    1
    21    98    99    1
    22   127   126    1
    23   124   126   ar
    24   124   122   ar
    25     1     2    1
    26   126   125   ar
    27     3     4    2
    28     3     2    1
    29    99   101   ar
    30    99   100   ar
    31   122   121   ar
    32     2     5    1
    33   125   123   ar
    34   121   123   ar
    35   121   120    1
    36   120   117    1
    37     5     6    1
    38    87    89   ar
    39    87    86   ar
    40    89    91   ar
    41    83    84    2
    42    83    82    1
    43    85    86    1
    44    85    82    1
    45    86    88   ar
    46    91    92    1
    47    91    90   ar
    48    82    81    1
    49    15    13   am
    50   117   116    1
    51   117   118    1
    52    45    44    1
    53    88    90   ar
    54   118   119    2
    55    36    35    2
    56    44    43    1
    57    81    69   am
    58    70    69    2
    59    13    14    2
    60    13    12    1
    61    69    68    1
    62    43    42    1
    63    35    37   am
    64    35    34    1
    65    73    75   ar
    66    73    72   ar
    67    75    76   ar
    68    12    11    1
    69    29    27    1
    70    20    21    1
    71    20    17    1
    72    28    27    1
    73    21    22    1
    74    34    31    1
    75    11     8    1
    76    42    39    1
    77    72    71    1
    78    72    74   ar
    79    27    24    1
    80    76    78   ar
    81    76    74   ar
    82    68    71    1
    83    68    67    1
    84    56    54   ar
    85    56    55   ar
    86    17    16    1
    87    17    18    1
    88    33    32    2
    89    54    52   ar
    90     7     8    1
    91    39    38    1
    92    39    40    1
    93    78    80   ar
    94    22    16    1
    95    67    65   am
    96    32    38   am
    97    32    31    1
    98    74    77   ar
    99    24    23    1
   100    24    25    1
   101     8     9    1
   102    18    19    2
   103    31    30    1
   104    55    53   ar
   105    52    51   ar
   106    40    41    2
   107    65    64    1
   108    65    66    2
   109    80    79   ar
   110    25    26    2
   111     9    10    2
   112    77    79   ar
   113    64    63    1
   114    53    51   ar
   115    63    59   am
   116    51    50    1
   117    49    48    2
   118    59    58    1
   119    59    60    2
   120    58    57    1
   121    58    61    1
   122    48    57   am
   123    48    47    1
   124    50    47    1
   125    61    62    1
   126    47    46    1
