@<TRIPOS>MOLECULE
tmp/1dm7B01.pdb
 149 147 0 0 0
SMALL
GASTEIGER

@<TRIPOS>ATOM
      1  N          8.1020    8.8880   62.9130 N.3   118  CYS118     -0.1235
      2  CA         7.3250    9.9130   63.6240 C.3   118  CYS118      0.1677
      3  C          7.5730   11.3500   63.1530 C.2   118  CYS118      0.2270
      4  O          8.6930   11.8690   63.2270 O.2   118  CYS118     -0.2867
      5  CB         7.5830    9.8150   65.1350 C.3   118  CYS118      0.0956
      6  SG         6.5300   10.8880   66.1480 S.3   118  CYS118     -0.0801
      7  N         -3.9920   -0.2540   70.1440 N.3   181  GLN181     -0.1245
      8  CA        -4.0510    1.0950   70.7030 C.3   181  GLN181      0.1566
      9  C         -4.9370    0.9810   71.9410 C.2   181  GLN181      0.2260
     10  O         -5.7210    0.0350   72.0550 O.2   181  GLN181     -0.2867
     11  CB        -4.6550    2.0940   69.7040 C.3   181  GLN181      0.0367
     12  CG        -3.7320    2.4910   68.5530 C.3   181  GLN181      0.0905
     13  CD        -4.3080    3.6010   67.6710 C.2   181  GLN181      0.2608
     14  OE1       -4.8650    4.5810   68.1630 O.2   181  GLN181     -0.2717
     15  NE2       -4.1540    3.4560   66.3610 N.am  181  GLN181     -0.0878
     16  N         -9.7310    1.8920   70.4920 N.3   184  ARG184     -0.1245
     17  CA       -10.0020    1.4240   69.1330 C.3   184  ARG184      0.1563
     18  C        -11.4830    1.0870   69.0330 C.2   184  ARG184      0.2260
     19  O        -12.1010    0.6870   70.0230 O.2   184  ARG184     -0.2867
     20  CB        -9.2010    0.1530   68.8380 C.3   184  ARG184      0.0307
     21  CG        -7.7090    0.3230   68.9620 C.3   184  ARG184      0.0489
     22  CD        -7.2110    1.2510   67.8890 C.3   184  ARG184      0.2205
     23  NE        -7.0680    0.5530   66.6200 N.pl3 184  ARG184     -0.0865
     24  CZ        -6.8640    1.1600   65.4600 C.cat 184  ARG184      0.5346
     25  NH1       -6.7400    0.4410   64.3540 N.pl3 184  ARG184      0.1354
     26  NH2       -6.8040    2.4870   65.4060 N.pl3 184  ARG184      0.1354
     27  N        -11.8020    9.2530   68.4360 N.3   265  TYR265     -0.1241
     28  CA       -11.2800    9.4790   69.7780 C.3   265  TYR265      0.1605
     29  C        -10.0800   10.4200   69.7710 C.2   265  TYR265      0.2264
     30  O         -9.3010   10.4540   68.8190 O.2   265  TYR265     -0.2867
     31  CB       -10.9350    8.1470   70.4330 C.3   265  TYR265      0.0534
     32  CG       -10.0370    7.2720   69.6010 C.ar  265  TYR265     -0.0201
     33  CD1       -8.6540    7.3700   69.7050 C.ar  265  TYR265     -0.0009
     34  CD2      -10.5700    6.3490   68.7040 C.ar  265  TYR265     -0.0009
     35  CE1       -7.8200    6.5700   68.9380 C.ar  265  TYR265      0.0417
     36  CE2       -9.7420    5.5380   67.9270 C.ar  265  TYR265      0.0417
     37  CZ        -8.3680    5.6530   68.0500 C.ar  265  TYR265      0.1957
     38  OH        -7.5430    4.8510   67.2980 O.3   265  TYR265     -0.2866
     39  N         -4.4750    9.1000   70.7070 N.3   268  PRO268     -0.2116
     40  CA        -3.7820    8.1260   69.8620 C.3   268  PRO268      0.1372
     41  C         -2.7170    7.5120   70.7670 C.2   268  PRO268      0.2244
     42  O         -1.6510    8.0970   70.9710 O.2   268  PRO268     -0.2868
     43  CB        -3.1820    8.9930   68.7630 C.3   268  PRO268      0.0268
     44  CG        -2.8370   10.2400   69.4800 C.3   268  PRO268      0.0207
     45  CD        -4.0420   10.4730   70.3740 C.3   268  PRO268      0.0892
     46  N         -0.5870    4.1420   71.1310 N.3   270  VAL270     -0.1245
     47  CA        -0.1060    2.8620   70.6310 C.3   270  VAL270      0.1561
     48  C          0.2820    1.9540   71.7880 C.2   270  VAL270      0.2260
     49  O          0.9770    2.3730   72.7130 O.2   270  VAL270     -0.2867
     50  CB         1.1020    3.0700   69.6840 C.3   270  VAL270      0.0252
     51  CG1        1.6370    1.7350   69.2110 C.3   270  VAL270      0.0019
     52  CG2        0.6790    3.9190   68.4940 C.3   270  VAL270      0.0019
     53  N          2.3120    4.3680   74.7340 N.3   287  PHE287     -0.1227
     54  CA         2.6840    5.7710   74.5980 C.3   287  PHE287      0.1736
     55  C          1.6660    6.5570   73.7790 C.2   287  PHE287      0.2596
     56  O          0.9660    5.9970   72.9270 O.2   287  PHE287     -0.2718
     57  CB         4.0650    5.8710   73.9530 C.3   287  PHE287      0.0547
     58  CG         4.1240    5.3420   72.5450 C.ar  287  PHE287     -0.0202
     59  CD1        3.6770    6.1140   71.4780 C.ar  287  PHE287     -0.0042
     60  CD2        4.6520    4.0820   72.2840 C.ar  287  PHE287     -0.0042
     61  CE1        3.7590    5.6410   70.1610 C.ar  287  PHE287     -0.0003
     62  CE2        4.7390    3.5980   70.9720 C.ar  287  PHE287     -0.0003
     63  CZ         4.2920    4.3840   69.9070 C.ar  287  PHE287     -0.0000
     64  N          1.5970    7.8600   74.0310 N.am  288  SER288     -0.1938
     65  CA         0.6420    8.6970   73.3250 C.3   288  SER288      0.2055
     66  C          1.0360   10.1630   73.1950 C.2   288  SER288      0.2644
     67  O          1.8370   10.6940   73.9680 O.2   288  SER288     -0.2714
     68  CB        -0.7210    8.6090   74.0210 C.3   288  SER288      0.2130
     69  OG        -0.6180    8.9980   75.3830 O.3   288  SER288     -0.2179
     70  N          0.4470   10.8100   72.2000 N.am  289  GLY289     -0.1939
     71  CA         0.6790   12.2210   71.9650 C.3   289  GLY289      0.2014
     72  C         -0.6760   12.7610   71.5670 C.2   289  GLY289      0.2639
     73  O         -1.6560   12.5770   72.2870 O.2   289  GLY289     -0.2714
     74  N         -0.7440   13.4290   70.4250 N.am  290  TRP290     -0.1959
     75  CA        -2.0110   13.9390   69.9350 C.3   290  TRP290      0.1771
     76  C         -2.0280   13.6460   68.4400 C.2   290  TRP290      0.2620
     77  O         -0.9930   13.3520   67.8560 O.2   290  TRP290     -0.2715
     78  CB        -2.1630   15.4420   70.2460 C.3   290  TRP290      0.0590
     79  CG        -1.0320   16.3350   69.8050 C.ar  290  TRP290      0.0006
     80  CD1       -0.7820   16.7890   68.5390 C.ar  290  TRP290      0.0946
     81  CD2       -0.0270   16.9130   70.6460 C.ar  290  TRP290      0.0152
     82  NE1        0.3150   17.6180   68.5410 N.ar  290  TRP290     -0.2442
     83  CE2        0.8010   17.7080   69.8210 C.ar  290  TRP290      0.0810
     84  CE3        0.2620   16.8310   72.0180 C.ar  290  TRP290      0.0012
     85  CZ2        1.8970   18.4240   70.3240 C.ar  290  TRP290      0.0191
     86  CZ3        1.3470   17.5390   72.5210 C.ar  290  TRP290      0.0001
     87  CH2        2.1560   18.3240   71.6730 C.ar  290  TRP290      0.0015
     88  N         -3.2040   13.7010   67.8320 N.am  291  TYR291     -0.1960
     89  CA        -3.3650   13.4110   66.4110 C.3   291  TYR291      0.1771
     90  C         -2.9860   14.5100   65.4430 C.2   291  TYR291      0.2619
     91  O         -3.0860   15.6990   65.7420 O.2   291  TYR291     -0.2715
     92  CB        -4.8240   13.0700   66.1070 C.3   291  TYR291      0.0574
     93  CG        -5.2010   11.6280   66.2680 C.ar  291  TYR291     -0.0198
     94  CD1       -4.7060   10.6640   65.3940 C.ar  291  TYR291     -0.0009
     95  CD2       -6.0980   11.2310   67.2570 C.ar  291  TYR291     -0.0009
     96  CE1       -5.0960    9.3440   65.4910 C.ar  291  TYR291      0.0417
     97  CE2       -6.5010    9.9070   67.3640 C.ar  291  TYR291      0.0417
     98  CZ        -5.9970    8.9670   66.4750 C.ar  291  TYR291      0.1957
     99  OH        -6.4090    7.6590   66.5500 O.3   291  TYR291     -0.2866
    100  N         -2.5480   14.0760   64.2700 N.am  292  MET292     -0.1977
    101  CA        -2.2700   14.9720   63.1630 C.3   292  MET292      0.1605
    102  C         -3.5300   14.6840   62.3520 C.2   292  MET292      0.2287
    103  O         -3.8430   13.5220   62.0870 O.2   292  MET292     -0.2864
    104  CB        -1.0400   14.5550   62.3680 C.3   292  MET292      0.0413
    105  CG        -0.9220   15.3540   61.0790 C.3   292  MET292      0.0598
    106  SD         0.6630   15.2330   60.3080 S.3   292  MET292     -0.1393
    107  CE         0.4760   13.7000   59.4430 C.3   292  MET292      0.0692
    108  N         -4.2500   11.5000   59.8940 N.3   295  GLU295     -0.1245
    109  CA        -4.3640   10.1300   60.3740 C.3   295  GLU295      0.1567
    110  C         -5.8370    9.7340   60.4580 C.2   295  GLU295      0.2260
    111  O         -6.1970    8.6000   60.1560 O.2   295  GLU295     -0.2867
    112  CB        -3.7330    9.9850   61.7490 C.3   295  GLU295      0.0388
    113  CG        -2.2210   10.0740   61.7880 C.3   295  GLU295      0.1160
    114  CD        -1.6990   10.0520   63.2170 C.2   295  GLU295      0.3649
    115  OE1       -1.6420   11.1310   63.8550 O.co2 295  GLU295     -0.2457
    116  OE2       -1.3690    8.9460   63.7060 O.co2 295  GLU295     -0.2457
    117  N         -6.4470    8.6210   56.3650 N.3   299  ARG299     -0.1231
    118  CA        -6.2330    7.1840   56.5880 C.3   299  ARG299      0.1694
    119  C         -7.3480    6.3840   57.2600 C.2   299  ARG299      0.2592
    120  O         -7.8730    5.4380   56.6700 O.2   299  ARG299     -0.2718
    121  CB        -4.9340    6.9530   57.3710 C.3   299  ARG299      0.0321
    122  CG        -3.6820    7.4640   56.6610 C.3   299  ARG299      0.0489
    123  CD        -3.5570    6.9270   55.2310 C.3   299  ARG299      0.2205
    124  NE        -3.3950    5.4760   55.1580 N.pl3 299  ARG299     -0.0865
    125  CZ        -2.3380    4.8110   55.6150 C.cat 299  ARG299      0.5346
    126  NH1       -1.3360    5.4660   56.1850 N.pl3 299  ARG299      0.1354
    127  NH2       -2.2800    3.4920   55.4930 N.pl3 299  ARG299      0.1354
    128  N         -7.7080    6.7480   58.4870 N.am  300  ASN300     -0.1974
    129  CA        -8.7370    6.0140   59.2090 C.3   300  ASN300      0.1688
    130  C        -10.1300    6.0770   58.5810 C.2   300  ASN300      0.2292
    131  O        -10.8610    5.0830   58.5830 O.2   300  ASN300     -0.2864
    132  CB        -8.8090    6.4870   60.6660 C.3   300  ASN300      0.1181
    133  CG        -7.4940    6.3150   61.3970 C.2   300  ASN300      0.2629
    134  OD1       -6.5780    5.6720   60.8950 O.2   300  ASN300     -0.2716
    135  ND2       -7.3940    6.8980   62.5890 N.am  300  ASN300     -0.0877
    136  N          6.6650    7.6100   55.3810 N.3   381  TRP381     -0.1241
    137  CA         5.8210    7.8330   56.5580 C.3   381  TRP381      0.1605
    138  C          5.7670    9.2970   56.9960 C.2   381  TRP381      0.2264
    139  O          4.7860    9.7220   57.6030 O.2   381  TRP381     -0.2867
    140  CB         6.2800    6.9680   57.7430 C.3   381  TRP381      0.0550
    141  CG         5.9120    5.5100   57.6180 C.ar  381  TRP381      0.0003
    142  CD1        6.2690    4.6610   56.6160 C.ar  381  TRP381      0.0946
    143  CD2        5.0930    4.7460   58.5130 C.ar  381  TRP381      0.0152
    144  NE1        5.7240    3.4190   56.8280 N.ar  381  TRP381     -0.2442
    145  CE2        4.9960    3.4420   57.9840 C.ar  381  TRP381      0.0810
    146  CE3        4.4310    5.0390   59.7140 C.ar  381  TRP381      0.0012
    147  CZ2        4.2550    2.4220   58.6130 C.ar  381  TRP381      0.0191
    148  CZ3        3.6940    4.0210   60.3410 C.ar  381  TRP381      0.0001
    149  CH2        3.6160    2.7290   59.7840 C.ar  381  TRP381      0.0015
@<TRIPOS>BOND
     1   124   123    1
     2   124   125    2
     3   123   122    1
     4   136   137    1
     5   127   125    1
     6   125   126    1
     7   117   118    1
     8   137   138    1
     9   137   140    1
    10   118   119    1
    11   118   121    1
    12   142   144   ar
    13   142   141   ar
    14   122   121    1
    15   120   119    2
    16   144   145   ar
    17   138   139    2
    18   119   128   am
    19   141   140    1
    20   141   143   ar
    21   145   143   ar
    22   145   147   ar
    23   128   129    1
    24   143   146   ar
    25   130   131    2
    26   130   129    1
    27   147   149   ar
    28   129   132    1
    29   107   106    1
    30   146   148   ar
    31   149   148   ar
    32   108   109    1
    33   111   110    2
    34   106   105    1
    35   109   110    1
    36   109   112    1
    37   132   133    1
    38   134   133    2
    39   105   104    1
    40   133   135   am
    41   112   113    1
    42   113   114    1
    43   103   102    2
    44   102   101    1
    45   104   101    1
    46     1     2    1
    47     3     4    2
    48     3     2    1
    49   101   100    1
    50   114   116   ar
    51   114   115   ar
    52     2     5    1
    53   100    90   am
    54    25    24    1
    55     5     6    1
    56    94    96   ar
    57    94    93   ar
    58    26    24    1
    59    90    91    2
    60    90    89    1
    61    24    23    2
    62    96    98   ar
    63    92    93    1
    64    92    89    1
    65    93    95   ar
    66    15    13   am
    67    89    88    1
    68    98    99    1
    69    98    97   ar
    70    23    22    1
    71    95    97   ar
    72    38    37    1
    73    13    14    2
    74    13    12    1
    75    88    76   am
    76    77    76    2
    77    22    21    1
    78    36    37   ar
    79    36    34   ar
    80    37    35   ar
    81    27    28    1
    82    76    75    1
    83    52    50    1
    84    80    82   ar
    85    80    79   ar
    86    82    83   ar
    87    12    11    1
    88    34    32   ar
    89    43    44    1
    90    43    40    1
    91    30    29    2
    92    20    21    1
    93    20    17    1
    94    35    33   ar
    95    18    17    1
    96    18    19    2
    97    17    16    1
    98    51    50    1
    99    44    45    1
   100    32    33   ar
   101    32    31    1
   102    50    47    1
   103    11     8    1
   104    29    28    1
   105    28    31    1
   106    79    78    1
   107    79    81   ar
   108    83    85   ar
   109    83    81   ar
   110    40    39    1
   111    40    41    1
   112    63    61   ar
   113    63    62   ar
   114    75    78    1
   115    75    74    1
   116     7     8    1
   117    61    59   ar
   118    85    87   ar
   119    45    39    1
   120    74    72   am
   121    47    46    1
   122    47    48    1
   123    81    84   ar
   124     8     9    1
   125    41    42    2
   126    62    60   ar
   127    59    58   ar
   128    72    71    1
   129    72    73    2
   130    87    86   ar
   131    48    49    2
   132     9    10    2
   133    71    70    1
   134    84    86   ar
   135    70    66   am
   136    60    58   ar
   137    58    57    1
   138    56    55    2
   139    66    65    1
   140    66    67    2
   141    65    68    1
   142    65    64    1
   143    55    64   am
   144    55    54    1
   145    57    54    1
   146    68    69    1
   147    54    53    1
