@<TRIPOS>MOLECULE
tmp/1dm8A02.pdb
 93 92 0 0 0
SMALL
GASTEIGER

@<TRIPOS>ATOM
      1  N          8.8800    5.2780   36.7320 N.3   120  CYS120     -0.1235
      2  CA         7.7960    5.5400   35.7830 C.3   120  CYS120      0.1677
      3  C          6.5050    4.8060   36.1420 C.2   120  CYS120      0.2270
      4  O          6.4680    3.5630   36.2050 O.2   120  CYS120     -0.2867
      5  CB         8.2000    5.1280   34.3580 C.3   120  CYS120      0.0956
      6  SG         6.8770    5.6010   33.1830 S.3   120  CYS120     -0.0801
      7  N         14.7590   18.6010   28.5780 N.3   183  GLN183     -0.1245
      8  CA        13.5480   18.2040   27.8640 C.3   183  GLN183      0.1566
      9  C         13.4660   18.9610   26.5420 C.2   183  GLN183      0.2260
     10  O         13.8690   20.1190   26.4500 O.2   183  GLN183     -0.2867
     11  CB        12.3000   18.5220   28.6900 C.3   183  GLN183      0.0367
     12  CG        11.8700   17.4520   29.6770 C.3   183  GLN183      0.0905
     13  CD        10.5570   17.8130   30.3750 C.2   183  GLN183      0.2608
     14  OE1        9.6150   18.3120   29.7450 O.2   183  GLN183     -0.2717
     15  NE2       10.4890   17.5490   31.6800 N.am  183  GLN183     -0.0878
     16  N          5.7990   15.7150   26.9750 N.3   270  PRO270     -0.2116
     17  CA         6.8650   15.5420   27.9680 C.3   270  PRO270      0.1372
     18  C          7.9330   14.6410   27.3330 C.2   270  PRO270      0.2244
     19  O          7.7590   13.4240   27.2260 O.2   270  PRO270     -0.2868
     20  CB         6.1300   14.8620   29.1310 C.3   270  PRO270      0.0268
     21  CG         5.1320   14.0150   28.4350 C.3   270  PRO270      0.0207
     22  CD         4.6080   14.9330   27.3440 C.3   270  PRO270      0.0892
     23  N         11.7700   13.6430   27.7340 N.3   272  VAL272     -0.1245
     24  CA        13.0070   13.6680   28.4830 C.3   272  VAL272      0.1561
     25  C         14.1360   13.5240   27.4760 C.2   272  VAL272      0.2260
     26  O         14.1080   12.6320   26.6200 O.2   272  VAL272     -0.2867
     27  CB        13.0520   12.5080   29.4980 C.3   272  VAL272      0.0252
     28  CG1       14.3870   12.4910   30.2110 C.3   272  VAL272      0.0019
     29  CG2       11.9320   12.6730   30.5120 C.3   272  VAL272      0.0019
     30  N         13.1250   10.4320   24.8000 N.3   289  PHE289     -0.1227
     31  CA        11.9120    9.6280   24.8040 C.3   289  PHE289      0.1736
     32  C         10.7270   10.4530   25.3050 C.2   289  PHE289      0.2596
     33  O         10.8910   11.3560   26.1280 O.2   289  PHE289     -0.2718
     34  CB        12.1300    8.3890   25.6750 C.3   289  PHE289      0.0547
     35  CG        12.4650    8.6940   27.1160 C.ar  289  PHE289     -0.0202
     36  CD1       11.4670    9.0460   28.0200 C.ar  289  PHE289     -0.0042
     37  CD2       13.7790    8.6050   27.5740 C.ar  289  PHE289     -0.0042
     38  CE1       11.7700    9.2940   29.3580 C.ar  289  PHE289     -0.0003
     39  CE2       14.0940    8.8500   28.9080 C.ar  289  PHE289     -0.0003
     40  CZ        13.0820    9.1970   29.8030 C.ar  289  PHE289     -0.0000
     41  N          9.5350   10.1360   24.8170 N.am  290  SER290     -0.1938
     42  CA         8.3510   10.8710   25.2190 C.3   290  SER290      0.2055
     43  C          7.1250    9.9770   25.3090 C.2   290  SER290      0.2644
     44  O          7.0810    8.8990   24.7050 O.2   290  SER290     -0.2714
     45  CB         8.0770   12.0020   24.2280 C.3   290  SER290      0.2130
     46  OG         7.7550   11.4920   22.9530 O.3   290  SER290     -0.2179
     47  N          6.1390   10.4360   26.0760 N.am  291  GLY291     -0.1939
     48  CA         4.8920    9.7090   26.2440 C.3   291  GLY291      0.2014
     49  C          3.8330   10.7760   26.3870 C.2   291  GLY291      0.2639
     50  O          3.6440   11.5760   25.4770 O.2   291  GLY291     -0.2714
     51  N          3.1100   10.7650   27.4980 N.am  292  TRP292     -0.1959
     52  CA         2.1350   11.8100   27.7650 C.3   292  TRP292      0.1771
     53  C          2.1880   12.1160   29.2580 C.2   292  TRP292      0.2620
     54  O          2.7360   11.3410   30.0340 O.2   292  TRP292     -0.2715
     55  CB         0.7140   11.4330   27.2800 C.3   292  TRP292      0.0590
     56  CG         0.1600   10.1230   27.7300 C.ar  292  TRP292      0.0006
     57  CD1       -0.3840    9.8210   28.9540 C.ar  292  TRP292      0.0946
     58  CD2        0.0900    8.9240   26.9530 C.ar  292  TRP292      0.0152
     59  NE1       -0.7860    8.5020   28.9760 N.ar  292  TRP292     -0.2442
     60  CE2       -0.5000    7.9310   27.7620 C.ar  292  TRP292      0.0810
     61  CE3        0.4810    8.5970   25.6470 C.ar  292  TRP292      0.0012
     62  CZ2       -0.7110    6.6240   27.3050 C.ar  292  TRP292      0.0191
     63  CZ3        0.2710    7.3030   25.1930 C.ar  292  TRP292      0.0001
     64  CH2       -0.3180    6.3300   26.0210 C.ar  292  TRP292      0.0015
     65  N          1.6460   13.2600   29.6510 N.am  293  TYR293     -0.1960
     66  CA         1.6730   13.6940   31.0460 C.3   293  TYR293      0.1771
     67  C          0.6530   13.0620   31.9630 C.2   293  TYR293      0.2619
     68  O         -0.3980   12.6070   31.5300 O.2   293  TYR293     -0.2715
     69  CB         1.4460   15.2070   31.1270 C.3   293  TYR293      0.0574
     70  CG         2.6810   16.0690   31.0940 C.ar  293  TYR293     -0.0198
     71  CD1        3.6050   16.0310   32.1340 C.ar  293  TYR293     -0.0009
     72  CD2        2.9150   16.9460   30.0300 C.ar  293  TYR293     -0.0009
     73  CE1        4.7380   16.8450   32.1250 C.ar  293  TYR293      0.0417
     74  CE2        4.0400   17.7650   29.9970 C.ar  293  TYR293      0.0417
     75  CZ         4.9430   17.7050   31.0520 C.ar  293  TYR293      0.1957
     76  OH         6.0630   18.5060   31.0470 O.3   293  TYR293     -0.2866
     77  N          0.9850   13.0260   33.2420 N.am  294  MET294     -0.1977
     78  CA         0.0330   12.5860   34.2410 C.3   294  MET294      0.1605
     79  C         -0.2010   13.9670   34.8450 C.2   294  MET294      0.2287
     80  O          0.7640   14.6530   35.1930 O.2   294  MET294     -0.2864
     81  CB         0.6550   11.6570   35.2850 C.3   294  MET294      0.0413
     82  CG        -0.2590   11.4750   36.4970 C.3   294  MET294      0.0598
     83  SD         0.2500   10.2020   37.6710 S.3   294  MET294     -0.1393
     84  CE         1.5420   11.0580   38.5330 C.3   294  MET294      0.0692
     85  N          1.9770   16.0650   37.4520 N.3   297  GLU297     -0.1245
     86  CA         3.2800   16.5770   37.0450 C.3   297  GLU297      0.1567
     87  C          3.1840   18.0720   36.7770 C.2   297  GLU297      0.2260
     88  O          4.0140   18.8480   37.2400 O.2   297  GLU297     -0.2867
     89  CB         3.7720   15.8700   35.7790 C.3   297  GLU297      0.0388
     90  CG         4.2670   14.4670   36.0150 C.3   297  GLU297      0.1160
     91  CD         4.5830   13.7630   34.7250 C.2   297  GLU297      0.3649
     92  OE1        3.6460   13.2400   34.0770 O.co2 297  GLU297     -0.2457
     93  OE2        5.7700   13.7500   34.3540 O.co2 297  GLU297     -0.2457
@<TRIPOS>BOND
     1    46    45    1
     2    45    42    1
     3    44    43    2
     4    30    31    1
     5    31    32    1
     6    31    34    1
     7    41    42    1
     8    41    32   am
     9    63    61   ar
    10    63    64   ar
    11    42    43    1
    12    32    33    2
    13    43    47   am
    14    50    49    2
    15    61    58   ar
    16    34    35    1
    17    64    62   ar
    18    47    48    1
    19    48    49    1
    20    49    51   am
    21    10     9    2
    22     9     8    1
    23    26    25    2
    24    58    56   ar
    25    58    60   ar
    26    16    22    1
    27    16    17    1
    28    35    37   ar
    29    35    36   ar
    30    19    18    2
    31    55    56    1
    32    55    52    1
    33    62    60   ar
    34    18    17    1
    35    22    21    1
    36    25    24    1
    37    51    52    1
    38    37    39   ar
    39    56    57   ar
    40    23    24    1
    41    60    59   ar
    42    52    53    1
    43     8     7    1
    44     8    11    1
    45    17    20    1
    46    36    38   ar
    47    21    20    1
    48    24    27    1
    49    11    12    1
    50    39    40   ar
    51    57    59   ar
    52    53    65   am
    53    53    54    2
    54    38    40   ar
    55    27    28    1
    56    27    29    1
    57    65    66    1
    58    12    13    1
    59    14    13    2
    60    74    72   ar
    61    74    75   ar
    62    72    70   ar
    63    13    15   am
    64    66    69    1
    65    66    67    1
    66    76    75    1
    67    75    73   ar
    68    70    69    1
    69    70    71   ar
    70    68    67    2
    71    67    77   am
    72    73    71   ar
    73     6     5    1
    74    77    78    1
    75    92    91   ar
    76    78    79    1
    77    78    81    1
    78    93    91   ar
    79     5     2    1
    80    91    90    1
    81    79    80    2
    82    81    82    1
    83    89    90    1
    84    89    86    1
    85     2     3    1
    86     2     1    1
    87     3     4    2
    88    82    83    1
    89    87    86    1
    90    87    88    2
    91    86    85    1
    92    83    84    1
