@<TRIPOS>MOLECULE
tmp/1dmaA00.pdb
 80 78 0 0 0
SMALL
GASTEIGER

@<TRIPOS>ATOM
      1  N         51.5240   65.4350    9.3620 N.3    41  HIS41      -0.1226
      2  CA        51.8260   66.5050   10.2810 C.3    41  HIS41       0.1752
      3  C         51.8090   65.9190   11.6840 C.2    41  HIS41       0.2597
      4  O         50.8280   65.3150   12.0280 O.2    41  HIS41      -0.2718
      5  CB        50.7630   67.5420   10.1890 C.3    41  HIS41       0.0759
      6  CG        51.0710   68.7110   11.0350 C.ar   41  HIS41       0.0818
      7  ND1       50.3750   68.9940   12.1810 N.ar   41  HIS41      -0.2268
      8  CD2       52.0290   69.6550   10.9190 C.ar   41  HIS41       0.1154
      9  CE1       50.8830   70.0830   12.7300 C.ar   41  HIS41       0.1986
     10  NE2       51.8850   70.5010   11.9850 N.ar   41  HIS41      -0.2212
     11  N         52.8740   66.0530   12.4780 N.am   42  GLY42      -0.1942
     12  CA        52.8540   65.4740   13.8110 C.3    42  GLY42       0.2014
     13  C         52.7760   66.5250   14.9040 C.2    42  GLY42       0.2639
     14  O         53.4180   67.5970   14.7820 O.2    42  GLY42      -0.2714
     15  N         51.9410   66.2700   15.9230 N.am   43  THR43      -0.1950
     16  CA        51.7630   67.1860   17.0900 C.3    43  THR43       0.1897
     17  C         51.3010   66.4900   18.3640 C.2    43  THR43       0.2313
     18  O         51.0300   65.2810   18.4220 O.2    43  THR43      -0.2863
     19  CB        50.6840   68.3230   16.9060 C.3    43  THR43       0.1794
     20  OG1       49.6130   67.8760   16.0740 O.3    43  THR43      -0.2208
     21  CG2       51.2750   69.5770   16.3500 C.3    43  THR43       0.0378
     22  N         54.0740   73.3430    8.4850 N.3    65  TYR65      -0.1227
     23  CA        54.9690   72.3100    8.0180 C.3    65  TYR65       0.1736
     24  C         54.3410   70.9770    7.9940 C.2    65  TYR65       0.2595
     25  O         53.6520   70.6120    8.9490 O.2    65  TYR65      -0.2718
     26  CB        56.1970   72.2060    8.9130 C.3    65  TYR65       0.0548
     27  CG        57.2070   73.3090    8.7210 C.ar   65  TYR65      -0.0200
     28  CD1       56.9480   74.6040    9.1730 C.ar   65  TYR65      -0.0009
     29  CD2       58.4260   73.0680    8.1080 C.ar   65  TYR65      -0.0009
     30  CE1       57.8620   75.5980    9.0150 C.ar   65  TYR65       0.0417
     31  CE2       59.3460   74.0780    7.9580 C.ar   65  TYR65       0.0417
     32  CZ        59.0480   75.3320    8.4110 C.ar   65  TYR65       0.1957
     33  OH        59.9160   76.3610    8.2260 O.3    65  TYR65      -0.2866
     34  N         54.5710   70.2480    6.9020 N.am   66  ILE66      -0.1966
     35  CA        54.0930   68.8840    6.7770 C.3    66  ILE66       0.1727
     36  C         55.2460   68.0320    6.2500 C.2    66  ILE66       0.2616
     37  O         56.3310   68.5290    6.0380 O.2    66  ILE66      -0.2715
     38  CB        52.8160   68.7480    5.9130 C.3    66  ILE66       0.0290
     39  CG1       53.1040   68.9800    4.4480 C.3    66  ILE66       0.0022
     40  CG2       51.7310   69.6260    6.4480 C.3    66  ILE66       0.0023
     41  CD1       51.8430   68.8060    3.5160 C.3    66  ILE66       0.0001
     42  N         55.0570   66.7300    6.1810 N.am   67  ALA67      -0.1977
     43  CA        56.1050   65.8800    5.6860 C.3    67  ALA67       0.1597
     44  C         55.5340   64.6810    4.9330 C.2    67  ALA67       0.2287
     45  O         54.5370   64.1230    5.3370 O.2    67  ALA67      -0.2864
     46  CB        56.9680   65.4280    6.8230 C.3    67  ALA67       0.0319
     47  N         59.5740   61.5080    9.6290 N.3    72  LEU72      -0.1231
     48  CA        59.9760   62.8630    9.9610 C.3    72  LEU72       0.1693
     49  C         58.8370   63.5580   10.7790 C.2    72  LEU72       0.2591
     50  O         59.0750   64.1840   11.8150 O.2    72  LEU72      -0.2718
     51  CB        60.2650   63.6440    8.6770 C.3    72  LEU72       0.0284
     52  CG        60.5450   65.1440    8.9040 C.3    72  LEU72       0.0019
     53  CD1       61.7720   65.2780    9.7500 C.3    72  LEU72       0.0001
     54  CD2       60.6970   65.8930    7.6060 C.3    72  LEU72       0.0001
     55  N         57.5940   63.4250   10.3290 N.am   73  ALA73      -0.1980
     56  CA        56.4840   64.0410   11.0410 C.3    73  ALA73       0.1597
     57  C         56.3410   63.4170   12.4290 C.2    73  ALA73       0.2287
     58  O         56.0230   64.1230   13.3870 O.2    73  ALA73      -0.2864
     59  CB        55.1770   63.9160   10.2440 C.3    73  ALA73       0.0319
     60  N         57.7690   64.9330   15.6770 N.3    76  TYR76      -0.1241
     61  CA        57.1020   66.0990   16.2650 C.3    76  TYR76       0.1605
     62  C         55.7710   65.7040   16.8880 C.2    76  TYR76       0.2264
     63  O         55.0330   66.5590   17.3930 O.2    76  TYR76      -0.2867
     64  CB        56.8090   67.1460   15.2070 C.3    76  TYR76       0.0534
     65  CG        58.0520   67.6070   14.4730 C.ar   76  TYR76      -0.0201
     66  CD1       58.5730   66.8240   13.4460 C.ar   76  TYR76      -0.0009
     67  CD2       58.6620   68.8080   14.8350 C.ar   76  TYR76      -0.0009
     68  CE1       59.7020   67.2560   12.7540 C.ar   76  TYR76       0.0417
     69  CE2       59.7890   69.2450   14.1380 C.ar   76  TYR76       0.0417
     70  CZ        60.3060   68.4700   13.0950 C.ar   76  TYR76       0.1957
     71  OH        61.3910   68.9040   12.4040 O.3    76  TYR76      -0.2866
     72  N         60.9660   68.3430    3.9180 N.3   148  GLU148     -0.1245
     73  CA        59.9280   68.9900    4.6710 C.3   148  GLU148      0.1567
     74  C         59.3090   69.9620    3.7180 C.2   148  GLU148      0.2260
     75  O         59.9940   70.5530    2.8730 O.2   148  GLU148     -0.2867
     76  CB        60.5130   69.7360    5.8570 C.3   148  GLU148      0.0388
     77  CG        61.4650   70.8260    5.4860 C.3   148  GLU148      0.1160
     78  CD        61.9590   71.6110    6.7010 C.2   148  GLU148      0.3649
     79  OE1       61.7160   71.1550    7.8560 O.co2 148  GLU148     -0.2457
     80  OE2       62.5930   72.6870    6.4790 O.co2 148  GLU148     -0.2457
@<TRIPOS>BOND
     1    75    74    2
     2    41    39    1
     3    74    73    1
     4    72    73    1
     5    39    38    1
     6    73    76    1
     7    44    45    2
     8    44    43    1
     9    77    76    1
    10    77    78    1
    11    43    42    1
    12    43    46    1
    13    38    40    1
    14    38    35    1
    15    37    36    2
    16    42    36   am
    17    36    35    1
    18    80    78   ar
    19    78    79   ar
    20    35    34    1
    21    34    24   am
    22    54    52    1
    23    31    29   ar
    24    31    32   ar
    25    24    23    1
    26    24    25    2
    27    23    22    1
    28    23    26    1
    29    29    27   ar
    30    33    32    1
    31    32    30   ar
    32    51    52    1
    33    51    48    1
    34    27    26    1
    35    27    28   ar
    36    52    53    1
    37    30    28   ar
    38     1     2    1
    39    47    48    1
    40    48    49    1
    41     5     2    1
    42     5     6    1
    43    59    56    1
    44     2     3    1
    45    55    49   am
    46    55    56    1
    47    49    50    2
    48     8     6   ar
    49     8    10   ar
    50     6     7   ar
    51    56    57    1
    52     3     4    2
    53     3    11   am
    54    10     9   ar
    55     7     9   ar
    56    71    70    1
    57    57    58    2
    58    11    12    1
    59    68    70   ar
    60    68    66   ar
    61    70    69   ar
    62    66    65   ar
    63    12    13    1
    64    69    67   ar
    65    65    67   ar
    66    65    64    1
    67    14    13    2
    68    13    15   am
    69    64    61    1
    70    60    61    1
    71    15    16    1
    72    20    19    1
    73    61    62    1
    74    21    19    1
    75    62    63    2
    76    19    16    1
    77    16    17    1
    78    17    18    2
