@<TRIPOS>MOLECULE
tmp/1dmbA00.pdb
 172 166 0 0 0
SMALL
GASTEIGER

@<TRIPOS>ATOM
      1  N         -8.4950   -7.7710   -9.9990 N.3    12  ASN12      -0.1240
      2  CA        -9.5070   -7.8100   -8.9400 C.3    12  ASN12       0.1653
      3  C        -10.7650   -7.0480   -9.3990 C.2    12  ASN12       0.2266
      4  O        -10.6220   -6.0850  -10.1620 O.2    12  ASN12      -0.2867
      5  CB        -9.0300   -7.2280   -7.6170 C.3    12  ASN12       0.1155
      6  CG        -9.8450   -7.8490   -6.4740 C.2    12  ASN12       0.2627
      7  OD1      -10.7500   -8.6610   -6.7110 O.2    12  ASN12      -0.2716
      8  ND2       -9.5000   -7.5040   -5.2430 N.am   12  ASN12      -0.0877
      9  N        -12.7690   -4.9370   -7.8270 N.3    14  ASP14      -0.1239
     10  CA       -12.8700   -3.5980   -7.2970 C.3    14  ASP14       0.1674
     11  C        -11.9060   -2.6580   -8.0070 C.2    14  ASP14       0.2266
     12  O        -11.4530   -1.6570   -7.3940 O.2    14  ASP14      -0.2867
     13  CB       -12.6030   -3.6540   -5.7740 C.3    14  ASP14       0.1410
     14  CG       -11.1180   -3.8300   -5.5310 C.2    14  ASP14       0.3668
     15  OD1      -10.4980   -4.5730   -6.3330 O.co2  14  ASP14      -0.2456
     16  OD2      -10.5500   -3.2100   -4.6230 O.co2  14  ASP14      -0.2456
     17  N        -11.4730  -14.3740   -5.5720 N.3    42  LYS42      -0.1245
     18  CA       -10.2860  -15.0700   -5.0560 C.3    42  LYS42       0.1561
     19  C         -9.1910  -15.3380   -6.0460 C.2    42  LYS42       0.2260
     20  O         -8.5170  -16.3760   -5.8870 O.2    42  LYS42      -0.2867
     21  CB       -10.8250  -16.4380   -4.5380 C.3    42  LYS42       0.0271
     22  CG       -11.7430  -16.1890   -3.2970 C.3    42  LYS42       0.0035
     23  CD       -10.8250  -15.8370   -2.1190 C.3    42  LYS42       0.0206
     24  CE       -11.5520  -15.4980   -0.8410 C.3    42  LYS42       0.1093
     25  NZ       -10.5980  -14.8210    0.0810 N.3    42  LYS42      -0.1314
     26  N         -6.3050  -14.0860   -6.2680 N.3    44  GLU44      -0.1231
     27  CA        -4.9870  -14.1160   -5.6220 C.3    44  GLU44       0.1699
     28  C         -4.6960  -15.5140   -5.1040 C.2    44  GLU44       0.2592
     29  O         -3.5340  -15.8510   -4.8170 O.2    44  GLU44      -0.2718
     30  CB        -4.8860  -13.1130   -4.4830 C.3    44  GLU44       0.0402
     31  CG        -5.5970  -13.4740   -3.1820 C.3    44  GLU44       0.1161
     32  CD        -7.0080  -13.0540   -2.9860 C.2    44  GLU44       0.3649
     33  OE1       -7.7000  -12.9410   -4.0170 O.co2  44  GLU44      -0.2457
     34  OE2       -7.4710  -12.8160   -1.8660 O.co2  44  GLU44      -0.2457
     35  N         -5.7210  -16.3320   -4.9770 N.am   45  GLU45      -0.1979
     36  CA        -5.5070  -17.7020   -4.4960 C.3    45  GLU45       0.1602
     37  C         -5.5810  -18.7280   -5.6090 C.2    45  GLU45       0.2287
     38  O         -4.9170  -19.7650   -5.5630 O.2    45  GLU45      -0.2864
     39  CB        -6.4620  -18.1230   -3.3870 C.3    45  GLU45       0.0415
     40  CG        -5.9000  -17.9310   -1.9600 C.3    45  GLU45       0.1163
     41  CD        -6.6360  -16.8760   -1.1730 C.2    45  GLU45       0.3649
     42  OE1       -7.8720  -16.8020   -1.2100 O.co2  45  GLU45      -0.2457
     43  OE2       -5.8320  -16.1720   -0.5260 O.co2  45  GLU45      -0.2457
     44  N          3.1250   -7.2350   -2.7150 N.3    65  ASP65      -0.1239
     45  CA         3.5400   -8.1300   -1.6080 C.3    65  ASP65       0.1674
     46  C          3.2070   -9.5750   -1.8770 C.2    65  ASP65       0.2266
     47  O          3.9050  -10.4400   -1.2840 O.2    65  ASP65      -0.2867
     48  CB         3.1300   -7.4470   -0.3040 C.3    65  ASP65       0.1410
     49  CG         1.6520   -7.4680   -0.0990 C.2    65  ASP65       0.3668
     50  OD1        0.8530   -7.1520   -0.9770 O.co2  65  ASP65      -0.2456
     51  OD2        1.2500   -7.8880    1.0090 O.co2  65  ASP65      -0.2456
     52  N          0.0710    2.9710   -3.2670 N.3   111  GLU111     -0.1245
     53  CA        -0.8270    3.3010   -2.1290 C.3   111  GLU111      0.1567
     54  C         -0.0290    3.4380   -0.8510 C.2   111  GLU111      0.2260
     55  O          1.0100    2.8360   -0.6390 O.2   111  GLU111     -0.2867
     56  CB        -1.8700    2.2470   -1.8640 C.3   111  GLU111      0.0388
     57  CG        -3.1370    2.4050   -2.6900 C.3   111  GLU111      0.1160
     58  CD        -4.1590    1.3480   -2.4070 C.2   111  GLU111      0.3649
     59  OE1       -3.8800    0.3120   -1.8300 O.co2 111  GLU111     -0.2457
     60  OE2       -5.2890    1.7060   -2.8640 O.co2 111  GLU111     -0.2457
     61  N         -7.3600    2.8750   13.1820 N.3   150  ASN150     -0.1240
     62  CA        -7.3320    1.4110   13.4530 C.3   150  ASN150      0.1653
     63  C         -6.1010    1.0630   14.2700 C.2   150  ASN150      0.2266
     64  O         -4.9630    1.1710   13.7990 O.2   150  ASN150     -0.2867
     65  CB        -7.4080    0.6150   12.1310 C.3   150  ASN150      0.1155
     66  CG        -7.6680   -0.8480   12.3770 C.2   150  ASN150      0.2627
     67  OD1       -7.9860   -1.3090   13.4920 O.2   150  ASN150     -0.2716
     68  ND2       -7.5610   -1.6730   11.3390 N.am  150  ASN150     -0.0877
     69  N         -4.4690   -3.2050   14.0850 N.3   153  GLU153     -0.1231
     70  CA        -3.7140   -3.6790   12.9350 C.3   153  GLU153      0.1684
     71  C         -2.3920   -3.0020   12.7610 C.2   153  GLU153      0.2434
     72  O         -2.3300   -1.7700   12.6540 O.2   153  GLU153     -0.2733
     73  CB        -4.5480   -3.3570   11.6640 C.3   153  GLU153      0.0402
     74  CG        -4.2800   -4.2430   10.4640 C.3   153  GLU153      0.1161
     75  CD        -4.6120   -5.6820   10.7910 C.2   153  GLU153      0.3649
     76  OE1       -5.7500   -6.0790   10.8830 O.co2 153  GLU153     -0.2457
     77  OE2       -3.5500   -6.3210   11.0110 O.co2 153  GLU153     -0.2457
     78  N         -1.3630   -3.8300   12.6850 N.am  154  PRO154     -0.2718
     79  CA         0.0010   -3.3340   12.5480 C.3   154  PRO154      0.1535
     80  C          0.2350   -2.3670   11.4000 C.2   154  PRO154      0.2599
     81  O          1.0640   -1.4260   11.4380 O.2   154  PRO154     -0.2715
     82  CB         0.8280   -4.5990   12.5870 C.3   154  PRO154      0.0310
     83  CG        -0.0960   -5.7540   12.3510 C.3   154  PRO154      0.0237
     84  CD        -1.4420   -5.2960   12.8440 C.3   154  PRO154      0.0939
     85  N         -0.4910   -2.5950   10.3180 N.am  155  TYR155     -0.1960
     86  CA        -0.3970   -1.7530    9.0950 C.3   155  TYR155      0.1771
     87  C         -0.6230   -0.2830    9.4700 C.2   155  TYR155      0.2619
     88  O          0.1340    0.6010    9.0370 O.2   155  TYR155     -0.2715
     89  CB        -1.3620   -2.3150    8.0170 C.3   155  TYR155      0.0574
     90  CG        -1.3380   -1.5550    6.7080 C.ar  155  TYR155     -0.0198
     91  CD1       -0.3930   -1.7820    5.7220 C.ar  155  TYR155     -0.0009
     92  CD2       -2.3000   -0.5670    6.4560 C.ar  155  TYR155     -0.0009
     93  CE1       -0.3610   -1.0170    4.5310 C.ar  155  TYR155      0.0417
     94  CE2       -2.3030    0.1870    5.2910 C.ar  155  TYR155      0.0417
     95  CZ        -1.3360   -0.0400    4.3170 C.ar  155  TYR155      0.1957
     96  OH        -1.3890    0.7310    3.1860 O.3   155  TYR155     -0.2866
     97  N         -1.6260   -0.0360   10.2780 N.am  156  PHE156     -0.1974
     98  CA        -2.1020    1.2500   10.7710 C.3   156  PHE156      0.1639
     99  C         -1.2460    1.9100   11.8320 C.2   156  PHE156      0.2290
    100  O         -1.0820    3.1480   11.8800 O.2   156  PHE156     -0.2864
    101  CB        -3.5810    1.1380   11.1080 C.3   156  PHE156      0.0560
    102  CG        -4.5420    1.0660    9.9600 C.ar  156  PHE156     -0.0200
    103  CD1       -4.7910   -0.1390    9.3110 C.ar  156  PHE156     -0.0042
    104  CD2       -5.2040    2.2280    9.5220 C.ar  156  PHE156     -0.0042
    105  CE1       -5.6820   -0.1830    8.2340 C.ar  156  PHE156     -0.0003
    106  CE2       -6.1210    2.1970    8.4640 C.ar  156  PHE156     -0.0003
    107  CZ        -6.3540    0.9730    7.8340 C.ar  156  PHE156     -0.0000
    108  N        -11.1280   -0.4540   12.7980 N.3   210  TYR210     -0.1241
    109  CA       -11.3670    0.1960   11.5290 C.3   210  TYR210      0.1605
    110  C        -12.7420    0.8640   11.4850 C.2   210  TYR210      0.2264
    111  O        -12.8790    2.0460   11.1610 O.2   210  TYR210     -0.2867
    112  CB       -11.3170   -0.8290   10.3680 C.3   210  TYR210      0.0534
    113  CG       -11.3810   -0.1050    9.0230 C.ar  210  TYR210     -0.0201
    114  CD1      -12.5680    0.2470    8.4050 C.ar  210  TYR210     -0.0009
    115  CD2      -10.1720    0.2330    8.4050 C.ar  210  TYR210     -0.0009
    116  CE1      -12.5750    0.9030    7.1870 C.ar  210  TYR210      0.0417
    117  CE2      -10.1600    0.9060    7.1900 C.ar  210  TYR210      0.0417
    118  CZ       -11.3670    1.2270    6.5940 C.ar  210  TYR210      0.1957
    119  OH       -11.2800    1.8880    5.3860 O.3   210  TYR210     -0.2866
    120  N         -8.6030    3.8770   -0.5830 N.3   230  TRP230     -0.1241
    121  CA        -9.7890    3.0350   -0.5660 C.3   230  TRP230      0.1605
    122  C        -10.9050    3.6040    0.2900 C.2   230  TRP230      0.2264
    123  O        -12.0890    3.1880    0.1180 O.2   230  TRP230     -0.2867
    124  CB        -9.3330    1.6230   -0.0640 C.3   230  TRP230      0.0550
    125  CG        -8.7140    1.6240    1.3160 C.ar  230  TRP230      0.0003
    126  CD1       -9.4020    1.6300    2.5080 C.ar  230  TRP230      0.0946
    127  CD2       -7.3130    1.6190    1.6410 C.ar  230  TRP230      0.0152
    128  NE1       -8.4970    1.6470    3.5300 N.ar  230  TRP230     -0.2442
    129  CE2       -7.2200    1.6610    3.0520 C.ar  230  TRP230      0.0810
    130  CE3       -6.1420    1.6450    0.9080 C.ar  230  TRP230      0.0012
    131  CZ2       -6.0060    1.6810    3.7040 C.ar  230  TRP230      0.0191
    132  CZ3       -4.9220    1.6700    1.5830 C.ar  230  TRP230      0.0001
    133  CH2       -4.8330    1.6960    2.9750 C.ar  230  TRP230      0.0015
    134  N          6.7370   -2.3490    1.5200 N.3   330  MET330     -0.1245
    135  CA         6.2850   -3.5720    2.2300 C.3   330  MET330      0.1570
    136  C          7.0840   -4.7160    1.6250 C.2   330  MET330      0.2261
    137  O          6.9440   -5.0180    0.4210 O.2   330  MET330     -0.2867
    138  CB         4.7970   -3.6170    1.9900 C.3   330  MET330      0.0387
    139  CG         3.9970   -4.6960    2.5350 C.3   330  MET330      0.0595
    140  SD         2.3100   -4.0760    2.8630 S.3   330  MET330     -0.1393
    141  CE         1.7110   -3.6770    1.2260 C.3   330  MET330      0.0692
    142  N          4.9450  -12.8190    6.7690 N.3   337  SER337     -0.1217
    143  CA         3.7410  -13.3470    7.4560 C.3   337  SER337      0.1889
    144  C          4.0670  -13.5720    8.9310 C.2   337  SER337      0.2288
    145  O          3.1370  -13.6680    9.7410 O.2   337  SER337     -0.2866
    146  CB         3.2070  -14.5830    6.7810 C.3   337  SER337      0.2089
    147  OG         4.3310  -15.2160    6.1480 O.3   337  SER337     -0.2183
    148  N          3.8780   -9.7250   10.5440 N.3   340  TRP340     -0.1241
    149  CA         2.5110   -9.2540   10.7920 C.3   340  TRP340      0.1605
    150  C          2.0770   -9.7300   12.1730 C.2   340  TRP340      0.2264
    151  O          2.0900   -8.9830   13.1410 O.2   340  TRP340     -0.2867
    152  CB         1.5600   -9.5810    9.6810 C.3   340  TRP340      0.0550
    153  CG         1.9010   -8.9850    8.3580 C.ar  340  TRP340      0.0003
    154  CD1        2.1470   -9.6810    7.1950 C.ar  340  TRP340      0.0946
    155  CD2        2.0460   -7.5850    8.0490 C.ar  340  TRP340      0.0152
    156  NE1        2.3980   -8.7850    6.1900 N.ar  340  TRP340     -0.2442
    157  CE2        2.3620   -7.5030    6.6740 C.ar  340  TRP340      0.0810
    158  CE3        1.9390   -6.4160    8.7890 C.ar  340  TRP340      0.0012
    159  CZ2        2.5610   -6.2920    6.0250 C.ar  340  TRP340      0.0191
    160  CZ3        2.1460   -5.2050    8.1500 C.ar  340  TRP340      0.0001
    161  CH2        2.4550   -5.1310    6.7890 C.ar  340  TRP340      0.0015
    162  N          1.3030   -7.5600   15.4490 N.3   344  ARG344     -0.1245
    163  CA        -0.0910   -7.3660   15.8640 C.3   344  ARG344      0.1563
    164  C         -0.2230   -7.6460   17.3710 C.2   344  ARG344      0.2260
    165  O         -1.0880   -7.1140   18.0750 O.2   344  ARG344     -0.2867
    166  CB        -1.0360   -8.2730   15.0730 C.3   344  ARG344      0.0307
    167  CG        -2.5100   -8.1300   15.3570 C.3   344  ARG344      0.0489
    168  CD        -3.4390   -8.3130   14.2210 C.3   344  ARG344      0.2205
    169  NE        -3.2890   -9.5440   13.5040 N.pl3 344  ARG344     -0.0865
    170  CZ        -2.6870   -9.8550   12.3580 C.cat 344  ARG344      0.5346
    171  NH1       -2.1520   -8.9460   11.5340 N.pl3 344  ARG344      0.1354
    172  NH2       -2.6430  -11.1420   11.9450 N.pl3 344  ARG344      0.1354
@<TRIPOS>BOND
     1     4     3    2
     2     1     2    1
     3     3     2    1
     4     2     5    1
     5    11    12    2
     6    11    10    1
     7     9    10    1
     8     5     6    1
     9    10    13    1
    10     7     6    2
    11     6     8   am
    12    15    14   ar
    13    26    27    1
    14    19    20    2
    15    19    18    1
    16    13    14    1
    17    27    28    1
    18    27    30    1
    19    37    38    2
    20    37    36    1
    21    17    18    1
    22    14    16   ar
    23    28    35   am
    24    28    29    2
    25    18    21    1
    26    35    36    1
    27    21    22    1
    28    36    39    1
    29    30    31    1
    30    33    32   ar
    31    39    40    1
    32    22    23    1
    33    52    53    1
    34    31    32    1
    35    32    34   ar
    36    60    58   ar
    37    44    45    1
    38    57    58    1
    39    57    56    1
    40    58    59   ar
    41    53    56    1
    42    53    54    1
    43    23    24    1
    44    40    41    1
    45    46    45    1
    46    46    47    2
    47    45    48    1
    48    42    41   ar
    49    41    43   ar
    50    50    49   ar
    51    54    55    2
    52    24    25    1
    53   120   121    1
    54   121   124    1
    55   121   122    1
    56    48    49    1
    57    49    51   ar
    58   124   125    1
    59   123   122    2
    60   137   136    2
    61   130   132   ar
    62   130   127   ar
    63   141   140    1
    64   125   127   ar
    65   125   126   ar
    66   134   135    1
    67   132   133   ar
    68   136   135    1
    69   127   129   ar
    70   138   135    1
    71   138   139    1
    72   126   128   ar
    73   139   140    1
    74   133   131   ar
    75   129   128   ar
    76   129   131   ar
    77    96    95    1
    78    95    93   ar
    79    95    94   ar
    80    93    91   ar
    81    94    92   ar
    82   119   118    1
    83    91    90   ar
    84   159   157   ar
    85   159   161   ar
    86   147   146    1
    87   156   157   ar
    88   156   154   ar
    89    92    90   ar
    90   118   116   ar
    91   118   117   ar
    92   157   155   ar
    93    90    89    1
    94   142   143    1
    95   146   143    1
    96   161   160   ar
    97   116   114   ar
    98   117   115   ar
    99   154   153   ar
   100   143   144    1
   101   107   105   ar
   102   107   106   ar
   103    89    86    1
   104   155   153   ar
   105   155   158   ar
   106   160   158   ar
   107   105   103   ar
   108   153   152    1
   109   114   113   ar
   110   115   113   ar
   111   106   104   ar
   112   144   145    2
   113   113   112    1
   114    88    87    2
   115    86    87    1
   116    86    85    1
   117   103   102   ar
   118    87    97   am
   119   104   102   ar
   120   152   149    1
   121   102   101    1
   122    97    98    1
   123    85    80   am
   124   112   109    1
   125    74    75    1
   126    74    73    1
   127   148   149    1
   128    98   101    1
   129    98    99    1
   130    75    76   ar
   131    75    77   ar
   132   149   150    1
   133   111   110    2
   134    68    66   am
   135    80    81    2
   136    80    79    1
   137   110   109    1
   138   109   108    1
   139   171   170    1
   140    73    70    1
   141    99   100    2
   142   172   170    1
   143    65    66    1
   144    65    62    1
   145   150   151    2
   146    83    82    1
   147    83    84    1
   148   170   169    2
   149    66    67    2
   150    79    82    1
   151    79    78    1
   152    72    71    2
   153    78    71   am
   154    78    84    1
   155    71    70    1
   156    70    69    1
   157    61    62    1
   158    62    63    1
   159   169   168    1
   160    64    63    2
   161   168   167    1
   162   166   167    1
   163   166   163    1
   164   162   163    1
   165   163   164    1
   166   164   165    2
