@<TRIPOS>MOLECULE
tmp/1dmhA00.pdb
 113 110 0 0 0
SMALL
GASTEIGER

@<TRIPOS>ATOM
      1  N         -1.7550   82.2080   85.0370 N.3    71  LEU71      -0.1245
      2  CA        -1.7000   83.2680   84.0300 C.3    71  LEU71       0.1561
      3  C         -1.1390   84.5130   84.7510 C.2    71  LEU71       0.2260
      4  O         -0.3150   85.2650   84.2050 O.2    71  LEU71      -0.2867
      5  CB        -3.1050   83.5270   83.4840 C.3    71  LEU71       0.0270
      6  CG        -3.2050   84.4590   82.2840 C.3    71  LEU71       0.0019
      7  CD1       -2.4510   83.8430   81.0800 C.3    71  LEU71       0.0001
      8  CD2       -4.6950   84.6670   81.9500 C.3    71  LEU71       0.0001
      9  N          3.0560   84.2150   85.4980 N.3    74  PRO74      -0.2116
     10  CA         4.0210   84.8000   84.5590 C.3    74  PRO74       0.1372
     11  C          3.9060   86.3290   84.4130 C.2    74  PRO74       0.2244
     12  O          4.9070   87.0070   84.1700 O.2    74  PRO74      -0.2868
     13  CB         3.7440   84.0280   83.2520 C.3    74  PRO74       0.0268
     14  CG         2.2640   83.6630   83.3900 C.3    74  PRO74       0.0207
     15  CD         2.2160   83.2020   84.8300 C.3    74  PRO74       0.0892
     16  N          9.9670   80.5590   79.3460 N.3   103  ILE103     -0.1245
     17  CA         8.8380   79.9430   80.0370 C.3   103  ILE103      0.1561
     18  C          7.9420   78.9930   79.2610 C.2   103  ILE103      0.2260
     19  O          7.7400   79.1150   78.0510 O.2   103  ILE103     -0.2867
     20  CB         7.9560   81.0110   80.7990 C.3   103  ILE103      0.0252
     21  CG1        7.0080   81.7530   79.8350 C.3   103  ILE103      0.0019
     22  CG2        8.8830   81.9990   81.5350 C.3   103  ILE103      0.0019
     23  CD1        6.0070   82.6600   80.5520 C.3   103  ILE103      0.0001
     24  N          4.7140   78.4510   80.1300 N.3   105  GLY105     -0.1210
     25  CA         3.3720   78.9970   79.9760 C.3   105  GLY105      0.1940
     26  C          2.4220   77.9510   80.5490 C.2   105  GLY105      0.2454
     27  O          2.8220   76.8010   80.7580 O.2   105  GLY105     -0.2732
     28  N          1.1550   78.2970   80.8120 N.am  106  PRO106     -0.2717
     29  CA         0.2130   77.3250   81.3820 C.3   106  PRO106      0.1535
     30  C         -0.6690   76.4980   80.4270 C.2   106  PRO106      0.2598
     31  O         -1.5870   75.8070   80.8810 O.2   106  PRO106     -0.2715
     32  CB        -0.6200   78.2200   82.2910 C.3   106  PRO106      0.0310
     33  CG        -0.8340   79.4350   81.3420 C.3   106  PRO106      0.0237
     34  CD         0.5380   79.6440   80.7140 C.3   106  PRO106      0.0939
     35  N         -0.3670   76.5250   79.1320 N.am  107  LEU107     -0.1978
     36  CA        -1.2290   75.8690   78.1490 C.3   107  LEU107      0.1596
     37  C         -0.7630   74.6030   77.4670 C.2   107  LEU107      0.2287
     38  O         -1.3150   74.2330   76.4260 O.2   107  LEU107     -0.2864
     39  CB        -1.6210   76.9020   77.0840 C.3   107  LEU107      0.0297
     40  CG        -2.0780   78.2040   77.7480 C.3   107  LEU107      0.0022
     41  CD1       -2.1640   79.3460   76.7500 C.3   107  LEU107      0.0001
     42  CD2       -3.3870   77.9540   78.4260 C.3   107  LEU107      0.0001
     43  N         -5.8890   78.6410   71.9750 N.3   162  TYR162     -0.1241
     44  CA        -5.2830   77.3170   71.9260 C.3   162  TYR162      0.1605
     45  C         -6.3650   76.2630   72.0570 C.2   162  TYR162      0.2264
     46  O         -7.3950   76.5030   72.7020 O.2   162  TYR162     -0.2867
     47  CB        -4.3250   77.0960   73.1040 C.3   162  TYR162      0.0534
     48  CG        -3.0270   77.8790   73.0850 C.ar  162  TYR162     -0.0201
     49  CD1       -2.9820   79.2490   73.4030 C.ar  162  TYR162     -0.0009
     50  CD2       -1.8300   77.2350   72.7810 C.ar  162  TYR162     -0.0009
     51  CE1       -1.7620   79.9410   73.4150 C.ar  162  TYR162      0.0417
     52  CE2       -0.6300   77.9000   72.7900 C.ar  162  TYR162      0.0417
     53  CZ        -0.5990   79.2430   73.1020 C.ar  162  TYR162      0.1957
     54  OH         0.6080   79.8690   73.0610 O.3   162  TYR162     -0.2866
     55  N         -1.3460   86.4520   71.8980 N.3   198  TYR198     -0.1241
     56  CA        -2.3510   86.0740   72.8870 C.3   198  TYR198      0.1605
     57  C         -2.6260   87.3060   73.7850 C.2   198  TYR198      0.2264
     58  O         -1.7190   88.1130   74.0430 O.2   198  TYR198     -0.2867
     59  CB        -1.7730   84.9020   73.7080 C.3   198  TYR198      0.0534
     60  CG        -2.5250   84.5340   74.9650 C.ar  198  TYR198     -0.0201
     61  CD1       -2.3680   85.2800   76.1390 C.ar  198  TYR198     -0.0009
     62  CD2       -3.4230   83.4740   74.9780 C.ar  198  TYR198     -0.0009
     63  CE1       -3.0930   84.9810   77.2940 C.ar  198  TYR198      0.0417
     64  CE2       -4.1580   83.1590   76.1320 C.ar  198  TYR198      0.0417
     65  CZ        -3.9850   83.9230   77.2790 C.ar  198  TYR198      0.1957
     66  OH        -4.7420   83.6500   78.3900 O.3   198  TYR198     -0.2866
     67  N          0.7910   89.1990   74.6780 N.3   219  ARG219     -0.1245
     68  CA         1.9760   88.4210   74.3410 C.3   219  ARG219      0.1563
     69  C          2.1300   88.4730   72.8260 C.2   219  ARG219      0.2260
     70  O          1.1350   88.4800   72.0960 O.2   219  ARG219     -0.2867
     71  CB         1.8320   86.9310   74.7300 C.3   219  ARG219      0.0307
     72  CG         1.5880   86.6300   76.2190 C.3   219  ARG219      0.0489
     73  CD         2.2310   85.3080   76.5750 C.3   219  ARG219      0.2205
     74  NE         3.6660   85.4440   76.3510 N.pl3 219  ARG219     -0.0865
     75  CZ         4.5370   84.4500   76.2550 C.cat 219  ARG219      0.5346
     76  NH1        4.1380   83.1870   76.3660 N.pl3 219  ARG219      0.1354
     77  NH2        5.8150   84.7290   75.9840 N.pl3 219  ARG219      0.1354
     78  N          3.8440   83.6760   69.1380 N.3   222  HIS222     -0.1241
     79  CA         4.9420   82.7730   69.4810 C.3   222  HIS222      0.1621
     80  C          4.5320   81.2990   69.3400 C.2   222  HIS222      0.2264
     81  O          3.3410   80.9610   69.2830 O.2   222  HIS222     -0.2867
     82  CB         5.3720   83.0010   70.9290 C.3   222  HIS222      0.0745
     83  CG         4.2650   82.7640   71.9020 C.ar  222  HIS222      0.0817
     84  ND1        3.2430   83.6720   72.0970 N.ar  222  HIS222     -0.2268
     85  CD2        3.9470   81.6740   72.6360 C.ar  222  HIS222      0.1154
     86  CE1        2.3440   83.1510   72.9120 C.ar  222  HIS222      0.1986
     87  NE2        2.7470   81.9390   73.2540 N.ar  222  HIS222     -0.2212
     88  N          5.5170   77.4200   71.0070 N.3   224  HIS224     -0.1241
     89  CA         6.1600   76.7070   72.1180 C.3   224  HIS224      0.1621
     90  C          6.8720   75.4300   71.6660 C.2   224  HIS224      0.2264
     91  O          6.4280   74.7680   70.7370 O.2   224  HIS224     -0.2867
     92  CB         5.1040   76.2850   73.1430 C.3   224  HIS224      0.0745
     93  CG         4.4520   77.4260   73.8500 C.ar  224  HIS224      0.0817
     94  ND1        4.9730   77.9810   75.0060 N.ar  224  HIS224     -0.2268
     95  CD2        3.3290   78.1270   73.5630 C.ar  224  HIS224      0.1154
     96  CE1        4.1920   78.9740   75.3990 C.ar  224  HIS224      0.1986
     97  NE2        3.1910   79.0820   74.5430 N.ar  224  HIS224     -0.2212
     98  N          3.9340   90.6930   78.1670 N.3   251  PHE251     -0.1227
     99  CA         3.5020   90.8430   79.5520 C.3   251  PHE251      0.1736
    100  C          4.0530   89.7020   80.4370 C.2   251  PHE251      0.2595
    101  O          4.0960   89.8220   81.6630 O.2   251  PHE251     -0.2718
    102  CB         1.9570   90.8990   79.6610 C.3   251  PHE251      0.0547
    103  CG         1.2910   89.5660   79.9650 C.ar  251  PHE251     -0.0202
    104  CD1        0.9910   88.6560   78.9530 C.ar  251  PHE251     -0.0042
    105  CD2        0.9590   89.2280   81.2850 C.ar  251  PHE251     -0.0042
    106  CE1        0.3560   87.4130   79.2660 C.ar  251  PHE251     -0.0003
    107  CE2        0.3360   88.0040   81.5950 C.ar  251  PHE251     -0.0003
    108  CZ         0.0350   87.0980   80.5800 C.ar  251  PHE251     -0.0000
    109  N          4.4750   88.6060   79.8010 N.am  252  ALA252     -0.1980
    110  CA         5.0280   87.4590   80.5280 C.3   252  ALA252      0.1597
    111  C          6.5550   87.4520   80.5150 C.2   252  ALA252      0.2287
    112  O          7.1740   86.4900   80.9820 O.2   252  ALA252     -0.2864
    113  CB         4.4960   86.1540   79.9370 C.3   252  ALA252      0.0319
@<TRIPOS>BOND
     1    78    79    1
     2    81    80    2
     3    80    79    1
     4    79    82    1
     5    91    90    2
     6    82    83    1
     7    88    89    1
     8    90    89    1
     9    55    56    1
    10    83    84   ar
    11    83    85   ar
    12    44    43    1
    13    44    45    1
    14    44    47    1
    15    45    46    2
    16    70    69    2
    17    84    86   ar
    18    89    92    1
    19    85    87   ar
    20    50    52   ar
    21    50    48   ar
    22    52    53   ar
    23    69    68    1
    24    56    59    1
    25    56    57    1
    26    86    87   ar
    27    54    53    1
    28    48    47    1
    29    48    49   ar
    30    53    51   ar
    31    92    93    1
    32    49    51   ar
    33    95    93   ar
    34    95    97   ar
    35    59    60    1
    36    57    58    2
    37    93    94   ar
    38    68    67    1
    39    68    71    1
    40    97    96   ar
    41    71    72    1
    42    60    62   ar
    43    60    61   ar
    44    62    64   ar
    45    94    96   ar
    46    77    75    1
    47    64    65   ar
    48    61    63   ar
    49    72    73    1
    50    75    74    2
    51    75    76    1
    52    74    73    1
    53    38    37    2
    54    41    40    1
    55    39    40    1
    56    39    36    1
    57    65    63   ar
    58    65    66    1
    59    37    36    1
    60    40    42    1
    61    19    18    2
    62    36    35    1
    63    98    99    1
    64   104   106   ar
    65   104   103   ar
    66    35    30   am
    67    18    17    1
    68   106   108   ar
    69    16    17    1
    70    99   102    1
    71    99   100    1
    72   102   103    1
    73   109   100   am
    74   109   110    1
    75    21    23    1
    76    21    20    1
    77   113   110    1
    78   103   105   ar
    79    25    24    1
    80    25    26    1
    81    17    20    1
    82    30    31    2
    83    30    29    1
    84   100   101    2
    85   111   110    1
    86   111   112    2
    87    26    27    2
    88    26    28   am
    89   108   107   ar
    90    34    28    1
    91    34    33    1
    92    20    22    1
    93    28    29    1
    94     7     6    1
    95   105   107   ar
    96    33    32    1
    97    29    32    1
    98     8     6    1
    99     6     5    1
   100    13    14    1
   101    13    10    1
   102    14    15    1
   103     5     2    1
   104     2     3    1
   105     2     1    1
   106    12    11    2
   107     4     3    2
   108    11    10    1
   109    10     9    1
   110    15     9    1
