@<TRIPOS>MOLECULE
tmp/1dmkB02.pdb
 93 88 0 0 0
SMALL
GASTEIGER

@<TRIPOS>ATOM
      1  N          9.8430    0.7950   51.6010 N.3    36  SER36      -0.1202
      2  CA         8.4130    1.0620   51.6250 C.3    36  SER36       0.2020
      3  C          7.6440    0.0000   52.3930 C.2    36  SER36       0.2619
      4  O          6.4320    0.1270   52.5990 O.2    36  SER36      -0.2717
      5  CB         7.8620    1.1490   50.2000 C.3    36  SER36       0.2103
      6  OG         7.7380   -0.1330   49.6170 O.3    36  SER36      -0.2182
      7  N          8.3420   -1.0560   52.7910 N.am   37  LEU37      -0.1965
      8  CA         7.7160   -2.1370   53.5370 C.3    37  LEU37       0.1728
      9  C          7.2610   -1.6480   54.9140 C.2    37  LEU37       0.2616
     10  O          7.9840   -0.9350   55.6060 O.2    37  LEU37      -0.2715
     11  CB         8.7030   -3.2980   53.6850 C.3    37  LEU37       0.0311
     12  CG         8.9580   -4.2430   52.4980 C.3    37  LEU37       0.0022
     13  CD1        8.2650   -5.5610   52.7590 C.3    37  LEU37       0.0001
     14  CD2        8.5040   -3.6370   51.1730 C.3    37  LEU37       0.0001
     15  N          6.0530   -2.0440   55.3000 N.am   38  VAL38      -0.1977
     16  CA         5.4950   -1.6410   56.5890 C.3    38  VAL38       0.1596
     17  C          6.1040   -2.3970   57.7680 C.2    38  VAL38       0.2287
     18  O          6.4460   -1.7980   58.7840 O.2    38  VAL38      -0.2864
     19  CB         3.9600   -1.8230   56.6040 C.3    38  VAL38       0.0276
     20  CG1        3.4110   -1.5010   57.9810 C.3    38  VAL38       0.0022
     21  CG2        3.3180   -0.9390   55.5640 C.3    38  VAL38       0.0022
     22  N          9.4240    7.1430   61.8580 N.3   117  ARG117     -0.1245
     23  CA         8.0940    7.3860   61.3020 C.3   117  ARG117      0.1563
     24  C          7.2770    8.4750   61.9970 C.2   117  ARG117      0.2260
     25  O          6.1610    8.7790   61.5650 O.2   117  ARG117     -0.2867
     26  CB         7.3020    6.0630   61.2630 C.3   117  ARG117      0.0307
     27  CG         7.8480    5.0950   60.2190 C.3   117  ARG117      0.0489
     28  CD         7.2780    3.6890   60.2830 C.3   117  ARG117      0.2205
     29  NE         7.7450    2.9230   59.1280 N.pl3 117  ARG117     -0.0865
     30  CZ         7.4050    1.6670   58.8430 C.cat 117  ARG117      0.5346
     31  NH1        6.5790    0.9870   59.6280 N.pl3 117  ARG117      0.1354
     32  NH2        7.8880    1.0920   57.7540 N.pl3 117  ARG117      0.1354
     33  N         -2.7290   14.2940   64.0600 N.3   292  MET292     -0.1245
     34  CA        -2.4230   15.2040   62.9730 C.3   292  MET292      0.1570
     35  C         -3.6890   14.9540   62.1670 C.2   292  MET292      0.2261
     36  O         -4.0530   13.8010   61.9500 O.2   292  MET292     -0.2867
     37  CB        -1.2060   14.7670   62.1650 C.3   292  MET292      0.0387
     38  CG        -0.9770   15.6340   60.9230 C.3   292  MET292      0.0595
     39  SD         0.7220   15.5120   60.2920 S.3   292  MET292     -0.1393
     40  CE         0.5730   14.0540   59.1860 C.3   292  MET292      0.0692
     41  N         -4.5320   11.9000   59.7510 N.3   295  GLU295     -0.1245
     42  CA        -4.6390   10.5410   60.2770 C.3   295  GLU295      0.1567
     43  C         -6.1010   10.1040   60.2990 C.2   295  GLU295      0.2260
     44  O         -6.4250    8.9770   59.9360 O.2   295  GLU295     -0.2867
     45  CB        -4.0390   10.4380   61.6910 C.3   295  GLU295      0.0388
     46  CG        -2.4960   10.5380   61.7530 C.3   295  GLU295      0.1160
     47  CD        -1.9560   10.5130   63.1810 C.2   295  GLU295      0.3649
     48  OE1       -1.7380   11.5960   63.7610 O.co2 295  GLU295     -0.2457
     49  OE2       -1.7600    9.4070   63.7290 O.co2 295  GLU295     -0.2457
     50  N         -6.6970    8.9420   56.2290 N.3   299  ARG299     -0.1245
     51  CA        -6.5510    7.4970   56.3720 C.3   299  ARG299      0.1563
     52  C         -7.7350    6.7680   57.0270 C.2   299  ARG299      0.2260
     53  O         -8.3830    5.9320   56.3980 O.2   299  ARG299     -0.2867
     54  CB        -5.2640    7.1750   57.1520 C.3   299  ARG299      0.0307
     55  CG        -3.9710    7.8050   56.5940 C.3   299  ARG299      0.0489
     56  CD        -3.6900    7.3840   55.1570 C.3   299  ARG299      0.2205
     57  NE        -3.8080    5.9380   54.9910 N.pl3 299  ARG299     -0.0865
     58  CZ        -2.9010    5.0380   55.3680 C.cat 299  ARG299      0.5346
     59  NH1       -1.7570    5.4100   55.9390 N.pl3 299  ARG299      0.1354
     60  NH2       -3.1560    3.7460   55.1940 N.pl3 299  ARG299      0.1354
     61  N          8.4990    7.9950   53.3880 N.3   380  ALA380     -0.1231
     62  CA         7.1410    7.5140   53.0490 C.3   380  ALA380      0.1694
     63  C          6.1180    7.7430   54.1430 C.2   380  ALA380      0.2592
     64  O          4.9170    7.8960   53.8610 O.2   380  ALA380     -0.2718
     65  CB         7.1680    6.0190   52.7100 C.3   380  ALA380      0.0304
     66  N          6.5730    7.7250   55.3930 N.am  381  TRP381     -0.1976
     67  CA         5.6590    7.9270   56.5170 C.3   381  TRP381      0.1640
     68  C          5.5470    9.3810   56.9480 C.2   381  TRP381      0.2290
     69  O          4.4950    9.8170   57.4410 O.2   381  TRP381     -0.2864
     70  CB         6.0740    7.0690   57.7160 C.3   381  TRP381      0.0576
     71  CG         5.5520    5.6590   57.6330 C.ar  381  TRP381      0.0006
     72  CD1        5.7660    4.7650   56.6270 C.ar  381  TRP381      0.0946
     73  CD2        4.6970    5.0040   58.5750 C.ar  381  TRP381      0.0152
     74  NE1        5.0930    3.5930   56.8790 N.ar  381  TRP381     -0.2442
     75  CE2        4.4290    3.7120   58.0700 C.ar  381  TRP381      0.0810
     76  CE3        4.1300    5.3830   59.7960 C.ar  381  TRP381      0.0012
     77  CZ2        3.6110    2.7920   58.7440 C.ar  381  TRP381      0.0191
     78  CZ3        3.3160    4.4680   60.4700 C.ar  381  TRP381      0.0001
     79  CH2        3.0670    3.1850   59.9370 C.ar  381  TRP381      0.0015
     80  N          5.8790   12.1440   54.8890 N.3   383  VAL383     -0.1245
     81  CA         5.1440   12.9360   53.9120 C.3   383  VAL383      0.1561
     82  C          3.6660   12.5180   54.0820 C.2   383  VAL383      0.2260
     83  O          3.3620   11.3360   54.0540 O.2   383  VAL383     -0.2867
     84  CB         5.6240   12.6180   52.4590 C.3   383  VAL383      0.0252
     85  CG1        4.7310   13.3050   51.4350 C.3   383  VAL383      0.0019
     86  CG2        7.0980   13.0660   52.2700 C.3   383  VAL383      0.0019
     87  N         -0.5030   11.7820   53.6390 N.3   385  PRO385     -0.2116
     88  CA        -1.2800   11.0510   52.6310 C.3   385  PRO385      0.1372
     89  C         -1.9940   11.8930   51.5640 C.2   385  PRO385      0.2244
     90  O         -2.5230   11.3540   50.5980 O.2   385  PRO385     -0.2868
     91  CB        -2.2230   10.1930   53.4850 C.3   385  PRO385      0.0268
     92  CG        -2.4660   11.0610   54.6750 C.3   385  PRO385      0.0207
     93  CD        -1.0790   11.5910   54.9840 C.3   385  PRO385      0.0892
@<TRIPOS>BOND
     1     6     5    1
     2     5     2    1
     3    90    89    2
     4    14    12    1
     5    85    84    1
     6    89    88    1
     7     1     2    1
     8     2     3    1
     9    86    84    1
    10     3     4    2
    11     3     7   am
    12    84    81    1
    13    12    13    1
    14    12    11    1
    15    88    91    1
    16    88    87    1
    17    65    62    1
    18     7     8    1
    19    62    61    1
    20    62    63    1
    21    91    92    1
    22     8    11    1
    23     8     9    1
    24    87    93    1
    25    64    63    2
    26    81    82    1
    27    81    80    1
    28    83    82    2
    29    63    66   am
    30    92    93    1
    31     9    15   am
    32     9    10    2
    33    57    56    1
    34    57    58    2
    35    56    55    1
    36    60    58    1
    37    15    16    1
    38    58    59    1
    39    66    67    1
    40    21    19    1
    41    50    51    1
    42    51    52    1
    43    51    54    1
    44    53    52    2
    45    67    68    1
    46    67    70    1
    47    16    19    1
    48    16    17    1
    49    55    54    1
    50    19    20    1
    51    72    74   ar
    52    72    71   ar
    53    74    75   ar
    54    68    69    2
    55    71    70    1
    56    71    73   ar
    57    32    30    1
    58    17    18    2
    59    75    73   ar
    60    75    77   ar
    61    73    76   ar
    62    77    79   ar
    63    30    29    2
    64    30    31    1
    65    29    28    1
    66    40    39    1
    67    41    42    1
    68    76    78   ar
    69    44    43    2
    70    79    78   ar
    71    27    28    1
    72    27    26    1
    73    42    43    1
    74    42    45    1
    75    39    38    1
    76    38    37    1
    77    26    23    1
    78    23    22    1
    79    23    24    1
    80    25    24    2
    81    45    46    1
    82    46    47    1
    83    36    35    2
    84    37    34    1
    85    35    34    1
    86    34    33    1
    87    47    49   ar
    88    47    48   ar
