@<TRIPOS>MOLECULE
tmp/1dmpA00.pdb
 105 98 0 0 0
SMALL
GASTEIGER

@<TRIPOS>ATOM
      1  N         -6.5850   28.7570   21.5750 N.3     8  ARG8       -0.1245
      2  CA        -6.7450   28.1140   22.8960 C.3     8  ARG8        0.1563
      3  C         -6.8260   29.1950   23.9180 C.2     8  ARG8        0.2260
      4  O         -6.0160   30.0980   23.8460 O.2     8  ARG8       -0.2867
      5  CB        -5.4920   27.3380   23.3410 C.3     8  ARG8        0.0307
      6  CG        -4.8810   26.2050   22.5110 C.3     8  ARG8        0.0489
      7  CD        -5.2610   24.7650   22.9200 C.3     8  ARG8        0.2205
      8  NE        -4.4430   23.8300   22.1390 N.pl3   8  ARG8       -0.0865
      9  CZ        -3.8230   22.7430   22.6410 C.cat   8  ARG8        0.5346
     10  NH1       -4.0040   22.3440   23.8990 N.pl3   8  ARG8        0.1354
     11  NH2       -2.9930   22.0440   21.8450 N.pl3   8  ARG8        0.1354
     12  N         -4.8380   26.3120   30.4450 N.3    23  LEU23      -0.1245
     13  CA        -5.9500   26.3290   29.5040 C.3    23  LEU23       0.1561
     14  C         -7.2350   26.5080   30.2960 C.2    23  LEU23       0.2260
     15  O         -7.4390   25.8780   31.3240 O.2    23  LEU23      -0.2867
     16  CB        -6.1040   24.9230   28.9790 C.3    23  LEU23       0.0270
     17  CG        -5.9490   24.4630   27.5700 C.3    23  LEU23       0.0019
     18  CD1       -6.2750   22.9840   27.6690 C.3    23  LEU23       0.0001
     19  CD2       -6.9300   25.0670   26.6070 C.3    23  LEU23       0.0001
     20  N        -10.6050   25.3150   30.7520 N.3    25  ASP25      -0.1239
     21  CA       -11.2300   24.1390   30.1840 C.3    25  ASP25       0.1674
     22  C        -12.5750   23.7910   30.8190 C.2    25  ASP25       0.2266
     23  O        -12.6470   23.3350   31.9400 O.2    25  ASP25      -0.2867
     24  CB       -10.2120   23.0260   30.4290 C.3    25  ASP25       0.1410
     25  CG       -10.4630   21.7700   29.6130 C.2    25  ASP25       0.3668
     26  OD1      -11.6010   21.5230   29.2430 O.co2  25  ASP25      -0.2456
     27  OD2       -9.5240   21.0370   29.3450 O.co2  25  ASP25      -0.2456
     28  N        -14.5840   21.3220   29.7890 N.3    27  GLY27      -0.1210
     29  CA       -14.9180   19.9120   29.8420 C.3    27  GLY27       0.1956
     30  C        -14.2170   19.1980   30.9610 C.2    27  GLY27       0.2612
     31  O        -14.2950   17.9980   31.1250 O.2    27  GLY27      -0.2717
     32  N        -13.4360   19.9480   31.7300 N.am   28  ALA28      -0.1965
     33  CA       -12.5270   19.2870   32.6770 C.3    28  ALA28       0.1728
     34  C        -13.1860   19.5030   33.9700 C.2    28  ALA28       0.2616
     35  O        -13.5930   20.6030   34.3080 O.2    28  ALA28      -0.2715
     36  CB       -11.1400   19.9160   32.7410 C.3    28  ALA28       0.0334
     37  N        -13.3570   18.4050   34.6740 N.am   29  ASP29      -0.1957
     38  CA       -14.0500   18.6740   35.9350 C.3    29  ASP29       0.1840
     39  C        -13.1230   19.1700   36.9980 C.2    29  ASP29       0.2622
     40  O        -13.5920   19.7730   37.9390 O.2    29  ASP29      -0.2715
     41  CB       -14.8240   17.4630   36.5090 C.3    29  ASP29       0.1450
     42  CG       -15.7730   16.7830   35.5360 C.2    29  ASP29       0.3671
     43  OD1      -16.5030   17.3950   34.7730 O.co2  29  ASP29      -0.2456
     44  OD2      -15.7680   15.5710   35.5610 O.co2  29  ASP29      -0.2456
     45  N        -11.8250   18.8440   36.7930 N.am   30  ASP30      -0.1971
     46  CA       -10.7190   18.9310   37.7350 C.3    30  ASP30       0.1709
     47  C         -9.7020   19.8080   37.0850 C.2    30  ASP30       0.2293
     48  O         -9.5880   19.7460   35.8880 O.2    30  ASP30      -0.2864
     49  CB       -10.0140   17.6060   37.8470 C.3    30  ASP30       0.1436
     50  CG       -10.9290   16.5600   38.3670 C.2    30  ASP30       0.3671
     51  OD1      -11.2850   16.6890   39.5400 O.co2  30  ASP30      -0.2456
     52  OD2      -11.2640   15.6180   37.6290 O.co2  30  ASP30      -0.2456
     53  N         -5.8240   20.2660   36.4560 N.3    32  VAL32      -0.1245
     54  CA        -4.6420   19.4030   36.4800 C.3    32  VAL32       0.1561
     55  C         -3.4450   20.2370   36.0600 C.2    32  VAL32       0.2260
     56  O         -3.4890   20.9030   35.0520 O.2    32  VAL32      -0.2867
     57  CB        -4.6690   18.2100   35.5040 C.3    32  VAL32       0.0252
     58  CG1       -3.7230   17.1400   36.0590 C.3    32  VAL32       0.0019
     59  CG2       -6.0050   17.5220   35.3750 C.3    32  VAL32       0.0019
     60  N         -7.2930   10.0750   37.4800 N.3    47  ILE47      -0.1231
     61  CA        -8.4180   10.6070   36.7220 C.3    47  ILE47       0.1692
     62  C         -8.3980    9.8980   35.4340 C.2    47  ILE47       0.2593
     63  O         -7.3750    9.3130   35.1350 O.2    47  ILE47      -0.2718
     64  CB        -8.2720   12.1180   36.5220 C.3    47  ILE47       0.0266
     65  CG1       -7.0100   12.6610   35.8880 C.3    47  ILE47       0.0019
     66  CG2       -8.3940   12.7880   37.8630 C.3    47  ILE47       0.0020
     67  CD1       -7.3660   14.1010   35.5090 C.3    47  ILE47       0.0001
     68  N         -9.4820    9.9640   34.6700 N.am   48  GLY48      -0.1942
     69  CA        -9.3950    9.4910   33.2740 C.3    48  GLY48       0.2014
     70  C         -9.3750   10.6350   32.2790 C.2    48  GLY48       0.2639
     71  O         -9.8580   11.7110   32.5520 O.2    48  GLY48      -0.2714
     72  N         -8.8330   10.3940   31.1180 N.am   49  GLY49      -0.1939
     73  CA        -8.8800   11.3950   30.0590 C.3    49  GLY49       0.2014
     74  C         -9.1320   10.7260   28.7570 C.2    49  GLY49       0.2638
     75  O         -9.7570    9.6880   28.6480 O.2    49  GLY49      -0.2714
     76  N         -8.6180   11.3320   27.7190 N.am   50  ILE50      -0.1977
     77  CA        -8.9920   10.7140   26.4680 C.3    50  ILE50       0.1596
     78  C         -8.0050    9.6440   26.2740 C.2    50  ILE50       0.2287
     79  O         -6.8050    9.8680   26.2490 O.2    50  ILE50      -0.2864
     80  CB        -9.0630   11.6920   25.2650 C.3    50  ILE50       0.0276
     81  CG1      -10.3960   11.5110   24.5590 C.3    50  ILE50       0.0022
     82  CG2       -7.9430   11.6240   24.2050 C.3    50  ILE50       0.0022
     83  CD1      -10.6250   12.4550   23.4060 C.3    50  ILE50       0.0001
     84  N          0.0690   16.8430   29.6650 N.3    80  PRO80      -0.2102
     85  CA         0.7020   17.6380   28.5940 C.3    80  PRO80       0.1504
     86  C          0.6530   19.1680   28.8150 C.2    80  PRO80       0.2575
     87  O          1.5280   19.9070   28.3940 O.2    80  PRO80      -0.2718
     88  CB        -0.1570   17.3010   27.3490 C.3    80  PRO80       0.0282
     89  CG        -1.0100   16.0640   27.6820 C.3    80  PRO80       0.0208
     90  CD        -1.0950   16.0530   29.1950 C.3    80  PRO80       0.0893
     91  N         -0.4630   19.6200   29.4050 N.am   81  VAL81      -0.1980
     92  CA        -0.8340   21.0390   29.3840 C.3    81  VAL81       0.1595
     93  C         -1.6070   21.2880   30.6580 C.2    81  VAL81       0.2287
     94  O         -2.3700   20.4540   31.1110 O.2    81  VAL81      -0.2864
     95  CB        -1.6550   21.3190   28.1030 C.3    81  VAL81       0.0276
     96  CG1       -2.9090   20.4410   27.9900 C.3    81  VAL81       0.0022
     97  CG2       -1.9980   22.7940   27.9870 C.3    81  VAL81       0.0022
     98  N         -4.4460   22.8050   32.9920 N.3    83  ILE83      -0.1245
     99  CA        -5.8670   22.8190   32.6510 C.3    83  ILE83       0.1561
    100  C         -6.5260   23.2670   33.9450 C.2    83  ILE83       0.2260
    101  O         -6.1780   22.7430   35.0010 O.2    83  ILE83      -0.2867
    102  CB        -6.2500   21.3480   32.3400 C.3    83  ILE83       0.0252
    103  CG1       -5.7300   20.8920   30.9740 C.3    83  ILE83       0.0019
    104  CG2       -7.7410   21.0360   32.4770 C.3    83  ILE83       0.0019
    105  CD1       -5.6560   19.3920   30.8560 C.3    83  ILE83       0.0001
@<TRIPOS>BOND
     1     1     2    1
     2    11     9    1
     3     8     9    2
     4     8     7    1
     5     6     7    1
     6     6     5    1
     7     9    10    1
     8     2     5    1
     9     2     3    1
    10    83    81    1
    11     4     3    2
    12    82    80    1
    13    81    80    1
    14    80    77    1
    15    79    78    2
    16    78    77    1
    17    77    76    1
    18    19    17    1
    19    88    89    1
    20    88    85    1
    21    17    18    1
    22    17    16    1
    23    89    90    1
    24    76    74   am
    25    97    95    1
    26    96    95    1
    27    95    92    1
    28    87    86    2
    29    85    86    1
    30    85    84    1
    31    75    74    2
    32    74    73    1
    33    86    91   am
    34    16    13    1
    35    90    84    1
    36    26    25   ar
    37    27    25   ar
    38    92    91    1
    39    92    93    1
    40    13    14    1
    41    13    12    1
    42    25    24    1
    43    28    29    1
    44    29    30    1
    45    73    72    1
    46    21    24    1
    47    21    20    1
    48    21    22    1
    49    14    15    2
    50    93    94    2
    51    22    23    2
    52   105   103    1
    53    30    31    2
    54    30    32   am
    55   103   102    1
    56    72    70   am
    57    32    33    1
    58    70    71    2
    59    70    69    1
    60   102   104    1
    61   102    99    1
    62    99    98    1
    63    99   100    1
    64    33    36    1
    65    33    34    1
    66    69    68    1
    67   100   101    2
    68    34    35    2
    69    34    37   am
    70    68    62   am
    71    37    38    1
    72    43    42   ar
    73    56    55    2
    74    63    62    2
    75    59    57    1
    76    62    61    1
    77    57    58    1
    78    57    54    1
    79    67    65    1
    80    42    44   ar
    81    42    41    1
    82    48    47    2
    83    65    64    1
    84    38    41    1
    85    38    39    1
    86    55    54    1
    87    53    54    1
    88    64    61    1
    89    64    66    1
    90    61    60    1
    91    45    39   am
    92    45    46    1
    93    39    40    2
    94    47    46    1
    95    52    50   ar
    96    46    49    1
    97    49    50    1
    98    50    51   ar
