@<TRIPOS>MOLECULE
tmp/1dmyA00.pdb
 155 149 0 0 0
SMALL
GASTEIGER

@<TRIPOS>ATOM
      1  N         50.0170   52.0440   47.8100 N.3    41  PHE41      -0.1241
      2  CA        50.9970   52.8330   47.0630 C.3    41  PHE41       0.1605
      3  C         50.4050   54.2290   46.9300 C.2    41  PHE41       0.2264
      4  O         49.3430   54.5080   47.4960 O.2    41  PHE41      -0.2867
      5  CB        51.3460   52.2340   45.6810 C.3    41  PHE41       0.0534
      6  CG        50.1540   51.7520   44.8700 C.ar   41  PHE41      -0.0203
      7  CD1       49.0600   52.5750   44.6220 C.ar   41  PHE41      -0.0042
      8  CD2       50.1450   50.4660   44.3420 C.ar   41  PHE41      -0.0042
      9  CE1       47.9780   52.1250   43.8650 C.ar   41  PHE41      -0.0003
     10  CE2       49.0610   49.9990   43.5790 C.ar   41  PHE41      -0.0003
     11  CZ        47.9850   50.8240   43.3430 C.ar   41  PHE41      -0.0000
     12  N         48.9600   57.1170   44.3770 N.3    43  GLN43      -0.1245
     13  CA        48.3240   57.1760   43.0760 C.3    43  GLN43       0.1566
     14  C         47.8860   58.5910   42.6700 C.2    43  GLN43       0.2260
     15  O         47.3470   59.3360   43.4760 O.2    43  GLN43      -0.2867
     16  CB        47.1070   56.2460   43.1660 C.3    43  GLN43       0.0367
     17  CG        46.1830   56.1570   41.9770 C.3    43  GLN43       0.0905
     18  CD        45.2050   54.9910   42.1020 C.2    43  GLN43       0.2608
     19  OE1       45.5860   53.8750   42.4510 O.2    43  GLN43      -0.2717
     20  NE2       43.9450   55.2460   41.8260 N.am   43  GLN43      -0.0878
     21  N         44.2050   56.8300   36.0640 N.3    68  GLN68      -0.1245
     22  CA        45.1510   57.0880   37.1290 C.3    68  GLN68       0.1566
     23  C         46.4690   56.4550   36.7940 C.2    68  GLN68       0.2260
     24  O         46.6070   55.8450   35.7430 O.2    68  GLN68      -0.2867
     25  CB        44.6250   56.4880   38.4370 C.3    68  GLN68       0.0367
     26  CG        44.0800   55.0550   38.3520 C.3    68  GLN68       0.0905
     27  CD        45.0740   53.9740   38.8330 C.2    68  GLN68       0.2608
     28  OE1       46.2810   54.2110   38.9560 O.2    68  GLN68      -0.2717
     29  NE2       44.5620   52.7760   39.0700 N.am   68  GLN68      -0.0878
     30  N         50.1490   54.9630   39.1460 N.3    70  HIS70      -0.1241
     31  CA        50.8000   54.7630   40.4300 C.3    70  HIS70       0.1621
     32  C         52.1720   54.1460   40.2500 C.2    70  HIS70       0.2264
     33  O         52.6290   53.9810   39.1240 O.2    70  HIS70      -0.2867
     34  CB        49.9410   53.8490   41.2860 C.3    70  HIS70       0.0745
     35  CG        49.5160   52.5930   40.5480 C.ar   70  HIS70       0.0817
     36  ND1       48.3200   52.5880   39.9690 N.ar   70  HIS70      -0.2268
     37  CD2       50.1090   51.3790   40.3910 C.ar   70  HIS70       0.1154
     38  CE1       48.0570   51.3690   39.4070 C.ar   70  HIS70       0.1986
     39  NE2       49.1870   50.6330   39.6840 N.ar   70  HIS70      -0.2212
     40  N         55.2920   51.3030   42.1880 N.3    72  HIS72      -0.1241
     41  CA        55.5810   50.1290   43.0190 C.3    72  HIS72       0.1621
     42  C         57.0690   50.2030   43.2950 C.2    72  HIS72       0.2264
     43  O         57.8440   50.5320   42.3950 O.2    72  HIS72      -0.2867
     44  CB        55.2560   48.8220   42.2550 C.3    72  HIS72       0.0745
     45  CG        53.7610   48.6820   41.9090 C.ar   72  HIS72       0.0817
     46  ND1       52.9570   48.0560   42.7680 N.ar   72  HIS72      -0.2268
     47  CD2       52.9810   49.0040   40.7720 C.ar   72  HIS72       0.1154
     48  CE1       51.6750   47.9400   42.2290 C.ar   72  HIS72       0.1986
     49  NE2       51.6900   48.5370   40.9720 N.ar   72  HIS72      -0.2212
     50  N         52.8190   52.4910   36.7010 N.3    95  HIS95      -0.1241
     51  CA        51.6850   51.9350   35.9780 C.3    95  HIS95       0.1621
     52  C         50.6780   53.0100   35.5980 C.2    95  HIS95       0.2264
     53  O         50.2240   53.7610   36.4570 O.2    95  HIS95      -0.2867
     54  CB        50.9640   50.8610   36.8010 C.3    95  HIS95       0.0745
     55  CG        51.7960   49.5970   36.9860 C.ar   95  HIS95       0.0817
     56  ND1       51.5350   48.8370   38.0420 N.ar   95  HIS95      -0.2268
     57  CD2       52.8240   49.0430   36.2470 C.ar   95  HIS95       0.1154
     58  CE1       52.3910   47.7650   38.0110 C.ar   95  HIS95       0.1986
     59  NE2       53.1800   47.8980   36.9050 N.ar   95  HIS95      -0.2212
     60  N         47.0490   53.4270   34.2330 N.3    97  VAL97      -0.1245
     61  CA        45.8080   52.7000   34.0490 C.3    97  VAL97       0.1561
     62  C         44.7510   53.4060   33.1930 C.2    97  VAL97       0.2260
     63  O         44.2870   54.5110   33.5120 O.2    97  VAL97      -0.2867
     64  CB        45.2340   52.3140   35.4110 C.3    97  VAL97       0.0252
     65  CG1       44.0130   51.4470   35.2520 C.3    97  VAL97       0.0019
     66  CG2       46.2910   51.6010   36.2230 C.3    97  VAL97       0.0019
     67  N         34.8330   53.1020   34.7700 N.3   107  TYR107     -0.1241
     68  CA        36.0620   52.5020   35.2740 C.3   107  TYR107      0.1605
     69  C         35.8800   51.4030   36.3160 C.2   107  TYR107      0.2264
     70  O         36.6390   50.4350   36.3440 O.2   107  TYR107     -0.2867
     71  CB        36.9510   53.6000   35.8390 C.3   107  TYR107      0.0534
     72  CG        38.2280   53.1210   36.4790 C.ar  107  TYR107     -0.0201
     73  CD1       39.3470   52.7990   35.7060 C.ar  107  TYR107     -0.0009
     74  CD2       38.3520   53.0800   37.8560 C.ar  107  TYR107     -0.0009
     75  CE1       40.5600   52.4630   36.2990 C.ar  107  TYR107      0.0417
     76  CE2       39.5480   52.7500   38.4530 C.ar  107  TYR107      0.0417
     77  CZ        40.6510   52.4480   37.6810 C.ar  107  TYR107      0.1957
     78  OH        41.8530   52.1760   38.3110 O.3   107  TYR107     -0.2866
     79  N         37.4060   47.9010   35.2330 N.3   111  SER111     -0.1217
     80  CA        38.4610   47.2220   35.9930 C.3   111  SER111      0.1889
     81  C         38.3110   45.7320   36.3130 C.2   111  SER111      0.2288
     82  O         39.3000   45.0660   36.6300 O.2   111  SER111     -0.2866
     83  CB        38.7930   47.9990   37.2710 C.3   111  SER111      0.2089
     84  OG        37.6350   48.2830   38.0310 O.3   111  SER111     -0.2183
     85  N         40.7290   47.0770   31.1230 N.3   117  LEU117     -0.1245
     86  CA        41.8530   47.9970   31.2110 C.3   117  LEU117      0.1561
     87  C         43.0620   47.6750   30.3610 C.2   117  LEU117      0.2260
     88  O         43.2900   46.5290   29.9830 O.2   117  LEU117     -0.2867
     89  CB        42.3650   48.0490   32.6530 C.3   117  LEU117      0.0270
     90  CG        41.4200   47.9670   33.8350 C.3   117  LEU117      0.0019
     91  CD1       42.2430   47.7030   35.0700 C.3   117  LEU117      0.0001
     92  CD2       40.6090   49.2380   33.9500 C.3   117  LEU117      0.0001
     93  N         47.1450   48.6910   30.7880 N.3   119  VAL119     -0.1245
     94  CA        48.1070   49.2950   31.6840 C.3   119  VAL119      0.1561
     95  C         49.4970   49.3220   31.0560 C.2   119  VAL119      0.2260
     96  O         49.9930   48.2880   30.6110 O.2   119  VAL119     -0.2867
     97  CB        48.1590   48.5240   33.0550 C.3   119  VAL119      0.0252
     98  CG1       49.2840   49.0620   33.9410 C.3   119  VAL119      0.0019
     99  CG2       46.8170   48.6400   33.7910 C.3   119  VAL119      0.0019
    100  N         46.3480   40.3540   34.7510 N.3   173  SER173     -0.1202
    101  CA        45.3760   40.6940   35.7800 C.3   173  SER173      0.2020
    102  C         45.8380   41.9180   36.5630 C.2   173  SER173      0.2619
    103  O         46.9520   42.4350   36.3470 O.2   173  SER173     -0.2717
    104  CB        45.3350   39.5580   36.7720 C.3   173  SER173      0.2103
    105  OG        46.6370   39.4120   37.3050 O.3   173  SER173     -0.2182
    106  N         45.0060   42.3190   37.5250 N.am  174  LEU174     -0.1965
    107  CA        45.3230   43.4270   38.4130 C.3   174  LEU174      0.1728
    108  C         46.3620   42.8120   39.3300 C.2   174  LEU174      0.2617
    109  O         46.2890   41.6140   39.5870 O.2   174  LEU174     -0.2715
    110  CB        44.0920   43.8150   39.2580 C.3   174  LEU174      0.0311
    111  CG        42.8390   44.3410   38.5440 C.3   174  LEU174      0.0022
    112  CD1       41.7520   44.6920   39.5290 C.3   174  LEU174      0.0001
    113  CD2       43.2090   45.5600   37.7340 C.3   174  LEU174      0.0001
    114  N         47.3430   43.5850   39.7940 N.am  175  THR175     -0.1937
    115  CA        48.3220   43.0310   40.7160 C.3   175  THR175      0.2028
    116  C         47.9350   43.2990   42.1910 C.2   175  THR175      0.2643
    117  O         48.7390   43.1340   43.1040 O.2   175  THR175     -0.2714
    118  CB        49.7690   43.4610   40.3920 C.3   175  THR175      0.1808
    119  OG1       49.9580   44.8420   40.6910 O.3   175  THR175     -0.2208
    120  CG2       50.0670   43.2420   38.9390 C.3   175  THR175      0.0379
    121  N         46.6970   43.7310   42.4150 N.am  176  THR176     -0.1937
    122  CA        46.1770   43.9500   43.7640 C.3   176  THR176      0.2013
    123  C         44.7620   43.3910   43.6570 C.2   176  THR176      0.2484
    124  O         44.2480   43.2150   42.5450 O.2   176  THR176     -0.2729
    125  CB        46.1240   45.4720   44.2030 C.3   176  THR176      0.1807
    126  OG1       45.0280   46.1380   43.5680 O.3   176  THR176     -0.2208
    127  CG2       47.4150   46.2010   43.8740 C.3   176  THR176      0.0379
    128  N         44.1320   43.0480   44.7920 N.am  177  PRO177     -0.2726
    129  CA        42.7720   42.5010   44.7940 C.3   177  PRO177      0.1402
    130  C         41.8200   43.3790   44.0180 C.2   177  PRO177      0.2269
    131  O         41.9130   44.5960   44.0910 O.2   177  PRO177     -0.2865
    132  CB        42.4340   42.4760   46.2690 C.3   177  PRO177      0.0296
    133  CG        43.7260   42.1020   46.8650 C.3   177  PRO177      0.0237
    134  CD        44.6850   43.0310   46.1530 C.3   177  PRO177      0.0939
    135  N         43.2370   42.9510   32.3520 N.3   183  VAL183     -0.1245
    136  CA        44.2800   43.8020   31.8200 C.3   183  VAL183      0.1561
    137  C         45.0460   43.3680   30.5940 C.2   183  VAL183      0.2260
    138  O         45.4880   42.2240   30.5090 O.2   183  VAL183     -0.2867
    139  CB        45.3360   44.0870   32.9190 C.3   183  VAL183      0.0252
    140  CG1       46.3690   45.0860   32.4310 C.3   183  VAL183      0.0019
    141  CG2       44.6580   44.6040   34.1760 C.3   183  VAL183      0.0019
    142  N         48.4250   44.1160   29.0820 N.3   185  TRP185     -0.1241
    143  CA        49.6510   44.7030   29.5640 C.3   185  TRP185      0.1605
    144  C         50.5690   45.2220   28.4960 C.2   185  TRP185      0.2264
    145  O         50.8590   44.5240   27.5420 O.2   185  TRP185     -0.2867
    146  CB        50.4090   43.7070   30.4470 C.3   185  TRP185      0.0550
    147  CG        49.9590   43.7280   31.8880 C.ar  185  TRP185      0.0003
    148  CD1       49.0040   42.9350   32.4630 C.ar  185  TRP185      0.0946
    149  CD2       50.3800   44.6590   32.9140 C.ar  185  TRP185      0.0152
    150  NE1       48.7920   43.3230   33.7650 N.ar  185  TRP185     -0.2442
    151  CE2       49.6210   44.3760   34.0700 C.ar  185  TRP185      0.0810
    152  CE3       51.3190   45.7070   32.9600 C.ar  185  TRP185      0.0012
    153  CZ2       49.7670   45.1090   35.2640 C.ar  185  TRP185      0.0191
    154  CZ3       51.4640   46.4340   34.1560 C.ar  185  TRP185      0.0001
    155  CH2       50.6910   46.1280   35.2830 C.ar  185  TRP185      0.0015
@<TRIPOS>BOND
     1   145   144    2
     2   144   143    1
     3   142   143    1
     4   143   146    1
     5    88    87    2
     6    87    86    1
     7   146   147    1
     8   138   137    2
     9   137   136    1
    10    96    95    2
    11    93    94    1
    12    95    94    1
    13    85    86    1
    14    86    89    1
    15    94    97    1
    16   136   135    1
    17   136   139    1
    18   147   148   ar
    19   147   149   ar
    20   140   139    1
    21   148   150   ar
    22    89    90    1
    23   149   152   ar
    24   149   151   ar
    25   139   141    1
    26   152   154   ar
    27    97    99    1
    28    97    98    1
    29    62    63    2
    30    62    61    1
    31   150   151   ar
    32    90    92    1
    33    90    91    1
    34    61    60    1
    35    61    64    1
    36   151   153   ar
    37   154   155   ar
    38   100   101    1
    39    67    68    1
    40    79    80    1
    41    65    64    1
    42   153   155   ar
    43    68    71    1
    44    68    69    1
    45    64    66    1
    46    52    51    1
    47    52    53    2
    48    73    75   ar
    49    73    72   ar
    50    24    23    2
    51   101   102    1
    52   101   104    1
    53    71    72    1
    54    51    50    1
    55    51    54    1
    56    80    81    1
    57    80    83    1
    58    21    22    1
    59    57    59   ar
    60    57    55   ar
    61    75    77   ar
    62    81    82    2
    63    69    70    2
    64   103   102    2
    65    72    74   ar
    66   102   106   am
    67   104   105    1
    68    23    22    1
    69    54    55    1
    70    59    58   ar
    71    55    56   ar
    72    22    25    1
    73    83    84    1
    74   106   107    1
    75    77    78    1
    76    77    76   ar
    77   113   111    1
    78    74    76   ar
    79    58    56   ar
    80    26    25    1
    81    26    27    1
    82   107   110    1
    83   107   108    1
    84   111   110    1
    85   111   112    1
    86    27    28    2
    87    27    29   am
    88   120   118    1
    89    33    32    2
    90    30    31    1
    91   108   109    2
    92   108   114   am
    93    38    39   ar
    94    38    36   ar
    95    39    37   ar
    96   114   115    1
    97    36    35   ar
    98    32    31    1
    99    37    35   ar
   100   118   119    1
   101   118   115    1
   102    31    34    1
   103    35    34    1
   104   115   116    1
   105    47    49   ar
   106    47    45   ar
   107    49    48   ar
   108    20    18   am
   109    45    44    1
   110    45    46   ar
   111    17    18    1
   112    17    16    1
   113    18    19    2
   114    40    41    1
   115   116   121   am
   116   116   117    2
   117    48    46   ar
   118    44    41    1
   119    43    42    2
   120   121   122    1
   121   124   123    2
   122    14    13    1
   123    14    15    2
   124    41    42    1
   125    13    16    1
   126    13    12    1
   127    11    10   ar
   128    11     9   ar
   129   126   125    1
   130    10     8   ar
   131   123   122    1
   132   123   128   am
   133   122   125    1
   134     9     7   ar
   135   127   125    1
   136   130   131    2
   137   130   129    1
   138     8     6   ar
   139     7     6   ar
   140   128   129    1
   141   128   134    1
   142   129   132    1
   143     6     5    1
   144     5     2    1
   145   134   133    1
   146   132   133    1
   147     3     2    1
   148     3     4    2
   149     2     1    1
