@<TRIPOS>MOLECULE
tmp/1dn2A00.pdb
 163 153 0 0 0
SMALL
GASTEIGER

@<TRIPOS>ATOM
      1  N          8.8930    2.3070  -16.0940 N.3     3  SER3       -0.1217
      2  CA         9.9010    2.1980  -15.0570 C.3     3  SER3        0.1889
      3  C          9.3160    1.3550  -13.9230 C.2     3  SER3        0.2288
      4  O          8.1010    1.3400  -13.7120 O.2     3  SER3       -0.2866
      5  CB        10.3270    3.5860  -14.5780 C.3     3  SER3        0.2089
      6  OG        10.9830    4.2850  -15.6260 O.3     3  SER3       -0.2183
      7  N          9.4480   -0.0390   -9.7330 N.3     5  PHE5       -0.1241
      8  CA         9.8750    0.1950   -8.3580 C.3     5  PHE5        0.1605
      9  C          9.3000   -0.8910   -7.4520 C.2     5  PHE5        0.2264
     10  O          8.0800   -1.0550   -7.3630 O.2     5  PHE5       -0.2867
     11  CB         9.4500    1.5910   -7.8960 C.3     5  PHE5        0.0534
     12  CG        10.0800    2.6980   -8.6910 C.ar    5  PHE5       -0.0203
     13  CD1       11.4440    2.9500   -8.5960 C.ar    5  PHE5       -0.0042
     14  CD2        9.3230    3.4630   -9.5640 C.ar    5  PHE5       -0.0042
     15  CE1       12.0440    3.9400   -9.3580 C.ar    5  PHE5       -0.0003
     16  CE2        9.9120    4.4580  -10.3300 C.ar    5  PHE5       -0.0003
     17  CZ        11.2770    4.6960  -10.2270 C.ar    5  PHE5       -0.0000
     18  N          8.7950   -2.3980   -3.7090 N.3     7  PHE7       -0.1228
     19  CA         8.7550   -2.0010   -2.3060 C.3     7  PHE7        0.1721
     20  C          8.6030   -3.1470   -1.3010 C.2     7  PHE7        0.2437
     21  O          7.8800   -4.1120   -1.5520 O.2     7  PHE7       -0.2733
     22  CB         7.6410   -0.9750   -2.1110 C.3     7  PHE7        0.0547
     23  CG         7.7590    0.2280   -3.0070 C.ar    7  PHE7       -0.0202
     24  CD1        8.4420    1.3590   -2.5820 C.ar    7  PHE7       -0.0042
     25  CD2        7.1970    0.2250   -4.2790 C.ar    7  PHE7       -0.0042
     26  CE1        8.5690    2.4670   -3.4100 C.ar    7  PHE7       -0.0003
     27  CE2        7.3180    1.3350   -5.1220 C.ar    7  PHE7       -0.0003
     28  CZ         8.0050    2.4540   -4.6850 C.ar    7  PHE7       -0.0000
     29  N          9.2930   -3.0540   -0.1430 N.am    8  PRO8       -0.2718
     30  CA         9.2340   -4.0830    0.8990 C.3     8  PRO8        0.1520
     31  C          7.9700   -3.9170    1.7170 C.2     8  PRO8        0.2440
     32  O          7.2930   -2.9010    1.6080 O.2     8  PRO8       -0.2731
     33  CB        10.4570   -3.7520    1.7460 C.3     8  PRO8        0.0310
     34  CG        10.4530   -2.2450    1.7320 C.3     8  PRO8        0.0237
     35  CD        10.1840   -1.9460    0.2700 C.3     8  PRO8        0.0939
     36  N          7.6010   -4.9280    2.5040 N.am    9  PRO9       -0.2716
     37  CA         6.3890   -4.7980    3.3170 C.3     9  PRO9        0.1536
     38  C          6.6220   -3.8650    4.5090 C.2     9  PRO9        0.2598
     39  O          7.7600   -3.5310    4.8190 O.2     9  PRO9       -0.2715
     40  CB         6.1180   -6.2360    3.7560 C.3     9  PRO9        0.0310
     41  CG         7.4760   -6.8640    3.7470 C.3     9  PRO9        0.0237
     42  CD         8.0900   -6.3140    2.4980 C.3     9  PRO9        0.0939
     43  N          5.5470   -3.4120    5.1450 N.am   10  LYS10      -0.1978
     44  CA         5.6510   -2.5180    6.3000 C.3    10  LYS10       0.1596
     45  C          6.2400   -3.2690    7.4850 C.2    10  LYS10       0.2287
     46  O          5.9430   -4.4550    7.6990 O.2    10  LYS10      -0.2864
     47  CB         4.2700   -2.0030    6.7110 C.3    10  LYS10       0.0298
     48  CG         3.5760   -1.1560    5.6950 C.3    10  LYS10       0.0038
     49  CD         4.2080    0.2120    5.6140 C.3    10  LYS10       0.0206
     50  CE         3.5190    1.0580    4.5550 C.3    10  LYS10       0.1093
     51  NZ         3.7850    0.5120    3.1970 N.3    10  LYS10      -0.1314
     52  N          3.6820   -5.0520    9.6460 N.3    13  ASP13      -0.1239
     53  CA         3.0460   -6.2000    9.0030 C.3    13  ASP13       0.1674
     54  C          3.9040   -7.4550    9.0780 C.2    13  ASP13       0.2266
     55  O          3.3880   -8.5670    9.0270 O.2    13  ASP13      -0.2867
     56  CB         2.7390   -5.9000    7.5320 C.3    13  ASP13       0.1410
     57  CG         1.7300   -4.7800    7.3520 C.2    13  ASP13       0.3668
     58  OD1        1.1360   -4.3200    8.3530 O.co2  13  ASP13      -0.2456
     59  OD2        1.5280   -4.3580    6.1940 O.co2  13  ASP13      -0.2456
     60  N          3.1950   -7.7500    2.5240 N.3    22  GLU22      -0.1245
     61  CA         3.1820   -7.9440    1.0810 C.3    22  GLU22       0.1567
     62  C          4.2260   -7.0950    0.3690 C.2    22  GLU22       0.2260
     63  O          4.5950   -6.0160    0.8470 O.2    22  GLU22      -0.2867
     64  CB         1.7970   -7.6210    0.5380 C.3    22  GLU22       0.0388
     65  CG         1.3130   -6.2460    0.9450 C.3    22  GLU22       0.1160
     66  CD        -0.1520   -5.9990    0.6320 C.2    22  GLU22       0.3649
     67  OE1       -0.5060   -4.8160    0.4100 O.co2  22  GLU22      -0.2457
     68  OE2       -0.9480   -6.9710    0.6260 O.co2  22  GLU22      -0.2457
     69  N          5.2720   -5.0600   -3.0410 N.3    24  THR24      -0.1218
     70  CA         4.5460   -4.3540   -4.0950 C.3    24  THR24       0.1862
     71  C          5.4080   -3.9500   -5.2810 C.2    24  THR24       0.2287
     72  O          6.3230   -3.1500   -5.1370 O.2    24  THR24      -0.2866
     73  CB         3.8960   -3.0890   -3.5160 C.3    24  THR24       0.1770
     74  OG1        3.2020   -3.4300   -2.3150 O.3    24  THR24      -0.2211
     75  CG2        2.9170   -2.4920   -4.4810 C.3    24  THR24       0.0375
     76  N          5.5040   -1.8750   -8.4200 N.3    26  VAL26      -0.1245
     77  CA         4.8560   -0.7450   -9.1030 C.3    26  VAL26       0.1561
     78  C          5.4890   -0.4080  -10.4510 C.2    26  VAL26       0.2260
     79  O          6.6950   -0.1460  -10.5340 O.2    26  VAL26      -0.2867
     80  CB         4.9540    0.5400   -8.2540 C.3    26  VAL26       0.0252
     81  CG1        4.2590    1.6980   -8.9430 C.3    26  VAL26       0.0019
     82  CG2        4.3800    0.3170   -6.8850 C.3    26  VAL26       0.0019
     83  N          5.4520    2.3100  -13.4790 N.3    28  VAL28      -0.1231
     84  CA         5.0090    3.6360  -13.8860 C.3    28  VAL28       0.1692
     85  C          5.3170    3.9110  -15.3540 C.2    28  VAL28       0.2592
     86  O          5.9980    3.1280  -16.0200 O.2    28  VAL28      -0.2718
     87  CB         5.6260    4.7540  -13.0010 C.3    28  VAL28       0.0266
     88  CG1        5.1410    4.6090  -11.5610 C.3    28  VAL28       0.0020
     89  CG2        7.1400    4.7130  -13.0570 C.3    28  VAL28       0.0020
     90  N          4.7890    5.0200  -15.8550 N.am   29  ASP29      -0.1974
     91  CA         4.9920    5.4150  -17.2340 C.3    29  ASP29       0.1709
     92  C          4.5330    4.3680  -18.2270 C.2    29  ASP29       0.2293
     93  O          5.2280    4.0870  -19.2150 O.2    29  ASP29      -0.2864
     94  CB         6.4580    5.7650  -17.5010 C.3    29  ASP29       0.1436
     95  CG         6.8650    7.1030  -16.9150 C.2    29  ASP29       0.3671
     96  OD1        5.9740    7.9100  -16.5630 O.co2  29  ASP29      -0.2456
     97  OD2        8.0890    7.3420  -16.8100 O.co2  29  ASP29      -0.2456
     98  N         -3.4180   -5.0910   -8.9510 N.3    54  LYS54      -0.1245
     99  CA        -4.3130   -4.0640   -8.4500 C.3    54  LYS54       0.1561
    100  C         -5.0260   -3.4620   -9.6680 C.2    54  LYS54       0.2260
    101  O         -4.5550   -3.6160  -10.7950 O.2    54  LYS54      -0.2867
    102  CB        -3.5110   -3.0010   -7.6820 C.3    54  LYS54       0.0271
    103  CG        -3.2420   -3.3720   -6.2300 C.3    54  LYS54       0.0035
    104  CD        -2.6180   -2.2430   -5.4370 C.3    54  LYS54       0.0206
    105  CE        -2.6360   -2.5810   -3.9540 C.3    54  LYS54       0.1093
    106  NZ        -1.7080   -1.7450   -3.1510 N.3    54  LYS54      -0.1314
    107  N         -3.0740    8.1530  -14.5890 N.3    59  GLN59      -0.1245
    108  CA        -2.3070    9.1820  -13.8940 C.3    59  GLN59       0.1566
    109  C         -2.5130   10.6160  -14.4020 C.2    59  GLN59       0.2260
    110  O         -2.0810   11.5780  -13.7710 O.2    59  GLN59      -0.2867
    111  CB        -0.8250    8.7980  -13.8790 C.3    59  GLN59       0.0367
    112  CG        -0.5460    7.4600  -13.2030 C.3    59  GLN59       0.0905
    113  CD        -1.0220    7.3930  -11.7450 C.2    59  GLN59       0.2608
    114  OE1       -0.5490    8.1310  -10.8840 O.2    59  GLN59      -0.2717
    115  NE2       -1.9410    6.4830  -11.4670 N.am   59  GLN59      -0.0878
    116  N         -1.1570   12.1870  -16.7550 N.3    61  ASN61      -0.1225
    117  CA         0.0300   12.8270  -17.3200 C.3    61  ASN61       0.1785
    118  C          0.4720   12.0420  -18.5680 C.2    61  ASN61       0.2598
    119  O          1.6380   12.0620  -18.9470 O.2    61  ASN61      -0.2718
    120  CB         1.1550   12.9290  -16.2820 C.3    61  ASN61       0.1169
    121  CG         1.7250   11.5820  -15.8900 C.2    61  ASN61       0.2627
    122  OD1        1.1320   10.5280  -16.1400 O.2    61  ASN61      -0.2716
    123  ND2        2.8990   11.6310  -15.2760 N.am   61  ASN61      -0.0877
    124  N         -0.5060   11.3700  -19.1820 N.am   62  SER62      -0.1938
    125  CA        -0.3740   10.5440  -20.3960 C.3    62  SER62       0.2055
    126  C          0.0190    9.0800  -20.1690 C.2    62  SER62       0.2643
    127  O          0.1800    8.3220  -21.1380 O.2    62  SER62      -0.2714
    128  CB         0.5920   11.1610  -21.4100 C.3    62  SER62       0.2130
    129  OG         1.9410   10.8660  -21.0820 O.3    62  SER62      -0.2179
    130  N          0.1240    8.6730  -18.9050 N.am   63  THR63      -0.1950
    131  CA         0.5260    7.3120  -18.5790 C.3    63  THR63       0.1897
    132  C         -0.3880    6.6410  -17.5700 C.2    63  THR63       0.2313
    133  O         -1.1960    7.2950  -16.8950 O.2    63  THR63      -0.2863
    134  CB         1.9370    7.3000  -17.9550 C.3    63  THR63       0.1794
    135  OG1        1.8790    7.8550  -16.6330 O.3    63  THR63      -0.2208
    136  CG2        2.9140    8.1200  -18.7960 C.3    63  THR63       0.0378
    137  N         -0.4480    3.5000  -14.3660 N.3    65  ARG65      -0.1245
    138  CA         0.3460    2.9910  -13.2640 C.3    65  ARG65       0.1563
    139  C         -0.2390    1.5980  -13.0480 C.2    65  ARG65       0.2260
    140  O         -1.4380    1.4580  -12.7710 O.2    65  ARG65      -0.2867
    141  CB         0.1470    3.8550  -12.0210 C.3    65  ARG65       0.0307
    142  CG         0.9880    3.4630  -10.8300 C.3    65  ARG65       0.0489
    143  CD         0.7530    4.4560   -9.6980 C.3    65  ARG65       0.2205
    144  NE         1.6910    4.3080   -8.5810 N.pl3  65  ARG65      -0.0865
    145  CZ         1.4200    3.6720   -7.4450 C.cat  65  ARG65       0.5346
    146  NH1        0.2360    3.1070   -7.2620 N.pl3  65  ARG65       0.1354
    147  NH2        2.3290    3.6250   -6.4800 N.pl3  65  ARG65       0.1354
    148  N          0.1790   -2.0200  -11.0330 N.3    67  VAL67      -0.1245
    149  CA         0.7720   -2.5540   -9.8140 C.3    67  VAL67       0.1561
    150  C          0.4420   -4.0310   -9.5370 C.2    67  VAL67       0.2260
    151  O         -0.6870   -4.4630   -9.7290 O.2    67  VAL67      -0.2867
    152  CB         0.3130   -1.6990   -8.5870 C.3    67  VAL67       0.0252
    153  CG1        0.9690   -2.1900   -7.2910 C.3    67  VAL67       0.0019
    154  CG2        0.6350   -0.2360   -8.8190 C.3    67  VAL67       0.0019
    155  N         13.7190   -6.3490  -10.8190 N.3    98  LYS98      -0.1245
    156  CA        14.1270   -5.6870   -9.5890 C.3    98  LYS98       0.1561
    157  C         14.0800   -6.7640   -8.5090 C.2    98  LYS98       0.2260
    158  O         13.2760   -7.6900   -8.5960 O.2    98  LYS98      -0.2867
    159  CB        13.1660   -4.5620   -9.2210 C.3    98  LYS98       0.0271
    160  CG        13.1650   -3.3930  -10.1720 C.3    98  LYS98       0.0035
    161  CD        14.4320   -2.5710  -10.0870 C.3    98  LYS98       0.0206
    162  CE        14.3560   -1.3860  -11.0470 C.3    98  LYS98       0.1093
    163  NZ        15.7010   -0.9000  -11.4580 N.3    98  LYS98      -0.1314
@<TRIPOS>BOND
     1   128   129    1
     2   128   125    1
     3   127   126    2
     4   125   126    1
     5   125   124    1
     6   126   130   am
     7    93    92    2
     8   124   118   am
     9   119   118    2
    10   130   131    1
    11   136   134    1
    12   131   134    1
    13   131   132    1
    14   118   117    1
    15    92    91    1
    16   134   135    1
    17   132   133    2
    18    94    91    1
    19    94    95    1
    20   117   116    1
    21   117   120    1
    22    91    90    1
    23    95    97   ar
    24    95    96   ar
    25   120   121    1
    26   122   121    2
    27     1     2    1
    28    86    85    2
    29   121   123   am
    30    90    85   am
    31     6     5    1
    32    85    84    1
    33     2     5    1
    34     2     3    1
    35   107   108    1
    36   109   108    1
    37   109   110    2
    38   137   138    1
    39     3     4    2
    40   108   111    1
    41    84    83    1
    42    84    87    1
    43   111   112    1
    44   138   139    1
    45   138   141    1
    46   112   113    1
    47    89    87    1
    48   139   140    2
    49    87    88    1
    50   141   142    1
    51   113   115   am
    52   113   114    2
    53   163   162    1
    54   162   161    1
    55   148   149    1
    56   142   143    1
    57   155   156    1
    58   101   100    2
    59    79    78    2
    60    78    77    1
    61    16    17   ar
    62    16    14   ar
    63    17    15   ar
    64   160   161    1
    65   160   159    1
    66   149   150    1
    67   149   152    1
    68     7     8    1
    69   151   150    2
    70   143   144    1
    71   100    99    1
    72   156   159    1
    73   156   157    1
    74    14    12   ar
    75    15    13   ar
    76    77    76    1
    77    77    80    1
    78    98    99    1
    79    81    80    1
    80   154   152    1
    81    12    13   ar
    82    12    11    1
    83   158   157    2
    84   152   153    1
    85   144   145    2
    86    99   102    1
    87     8    11    1
    88     8     9    1
    89    80    82    1
    90   102   103    1
    91     9    10    2
    92   145   146    1
    93   145   147    1
    94   103   104    1
    95   104   105    1
    96    71    72    2
    97    71    70    1
    98    27    28   ar
    99    27    25   ar
   100    28    26   ar
   101    75    73    1
   102    25    23   ar
   103    70    73    1
   104    70    69    1
   105   105   106    1
   106    18    19    1
   107    73    74    1
   108    26    24   ar
   109    23    24   ar
   110    23    22    1
   111    19    22    1
   112    19    20    1
   113    21    20    2
   114    20    29   am
   115    29    35    1
   116    29    30    1
   117    35    34    1
   118    62    63    2
   119    62    61    1
   120    67    66   ar
   121    64    65    1
   122    64    61    1
   123    68    66   ar
   124    66    65    1
   125    30    31    1
   126    30    33    1
   127    61    60    1
   128    32    31    2
   129    31    36   am
   130    34    33    1
   131    42    36    1
   132    42    41    1
   133    36    37    1
   134    51    50    1
   135    37    40    1
   136    37    38    1
   137    41    40    1
   138    38    39    2
   139    38    43   am
   140    50    49    1
   141    43    44    1
   142    49    48    1
   143    48    47    1
   144    59    57   ar
   145    44    47    1
   146    44    45    1
   147    57    56    1
   148    57    58   ar
   149    45    46    2
   150    56    53    1
   151    53    54    1
   152    53    52    1
   153    55    54    2
