@<TRIPOS>MOLECULE
tmp/1dnlA00.pdb
 139 134 0 0 0
SMALL
GASTEIGER

@<TRIPOS>ATOM
      1  N         61.9990   12.0010   14.6130 N.3    30  ASP30      -0.1239
      2  CA        61.9030   13.4270   14.3070 C.3    30  ASP30       0.1674
      3  C         62.2810   14.3390   15.4880 C.2    30  ASP30       0.2266
      4  O         61.4170   15.0060   16.0510 O.2    30  ASP30      -0.2867
      5  CB        60.4730   13.7700   13.8600 C.3    30  ASP30       0.1410
      6  CG        59.9890   12.9220   12.6820 C.2    30  ASP30       0.3668
      7  OD1       60.4500   13.1570   11.5420 O.co2  30  ASP30      -0.2456
      8  OD2       59.1390   12.0250   12.8990 O.co2  30  ASP30      -0.2456
      9  N         61.0080   17.7420   15.2610 N.3    33  ALA33      -0.1245
     10  CA        59.5640   17.9170   15.1940 C.3    33  ALA33       0.1562
     11  C         59.1210   18.7850   16.3730 C.2    33  ALA33       0.2260
     12  O         59.5240   18.5600   17.5200 O.2    33  ALA33      -0.2867
     13  CB        58.8560   16.5600   15.2260 C.3    33  ALA33       0.0290
     14  N         46.7140   23.7700   16.3920 N.3    46  GLN46      -0.1231
     15  CA        48.0410   23.1720   16.4850 C.3    46  GLN46       0.1698
     16  C         48.3150   22.1530   15.3910 C.2    46  GLN46       0.2592
     17  O         47.3880   21.5190   14.8680 O.2    46  GLN46      -0.2718
     18  CB        48.2010   22.4330   17.8200 C.3    46  GLN46       0.0381
     19  CG        48.1100   23.2850   19.0760 C.3    46  GLN46       0.0905
     20  CD        48.1710   22.4240   20.3300 C.2    46  GLN46       0.2608
     21  OE1       47.2200   21.7140   20.6570 O.2    46  GLN46      -0.2717
     22  NE2       49.2990   22.4680   21.0210 N.am   46  GLN46      -0.0878
     23  N         49.5950   21.9920   15.0670 N.am   47  ARG47      -0.1966
     24  CA        50.0310   20.9910   14.0930 C.3    47  ARG47       0.1729
     25  C         51.5430   20.8880   14.2260 C.2    47  ARG47       0.2616
     26  O         52.2010   21.8380   14.6510 O.2    47  ARG47      -0.2715
     27  CB        49.6760   21.3770   12.6500 C.3    47  ARG47       0.0348
     28  CG        50.5600   22.4680   12.0290 C.3    47  ARG47       0.0492
     29  CD        50.3400   23.7920   12.7350 C.3    47  ARG47       0.2205
     30  NE        49.0450   24.3780   12.4060 N.pl3  47  ARG47      -0.0865
     31  CZ        48.5420   25.4570   12.9910 C.cat  47  ARG47       0.5346
     32  NH1       49.2150   26.0690   13.9590 N.pl3  47  ARG47       0.1354
     33  NH2       47.3900   25.9640   12.5570 N.pl3  47  ARG47       0.1354
     34  N         52.0930   19.7320   13.8760 N.am   48  ILE48      -0.1963
     35  CA        53.5380   19.5680   13.9350 C.3    48  ILE48       0.1727
     36  C         54.2240   20.0460   12.6570 C.2    48  ILE48       0.2616
     37  O         53.6910   19.8860   11.5450 O.2    48  ILE48      -0.2715
     38  CB        53.9160   18.0860   14.1340 C.3    48  ILE48       0.0290
     39  CG1       53.4520   17.6100   15.5160 C.3    48  ILE48       0.0022
     40  CG2       55.4240   17.8950   13.9470 C.3    48  ILE48       0.0023
     41  CD1       53.6120   16.0880   15.7200 C.3    48  ILE48       0.0001
     42  N         55.3960   20.6540   12.8240 N.am   49  VAL49      -0.1963
     43  CA        56.2370   21.0560   11.7000 C.3    49  VAL49       0.1727
     44  C         57.6770   20.7410   12.1120 C.2    49  VAL49       0.2616
     45  O         57.9520   20.4630   13.2820 O.2    49  VAL49      -0.2715
     46  CB        56.1410   22.5590   11.3400 C.3    49  VAL49       0.0290
     47  CG1       54.7010   22.9090   10.9380 C.3    49  VAL49       0.0023
     48  CG2       56.6320   23.4200   12.5060 C.3    49  VAL49       0.0023
     49  N         58.5940   20.7720   11.1570 N.am   50  LEU50      -0.1977
     50  CA        59.9830   20.4900   11.4760 C.3    50  LEU50       0.1596
     51  C         60.8180   21.7580   11.5770 C.2    50  LEU50       0.2287
     52  O         60.7250   22.6440   10.7220 O.2    50  LEU50      -0.2864
     53  CB        60.6060   19.5920   10.4040 C.3    50  LEU50       0.0297
     54  CG        60.0070   18.1990   10.2040 C.3    50  LEU50       0.0022
     55  CD1       60.8090   17.4420    9.1340 C.3    50  LEU50       0.0001
     56  CD2       60.0400   17.4430   11.5310 C.3    50  LEU50       0.0001
     57  N         63.9140   23.7230   10.9640 N.3    52  LYS52      -0.1245
     58  CA        64.9340   23.5780    9.9260 C.3    52  LYS52       0.1561
     59  C         66.2360   24.3240   10.1940 C.2    52  LYS52       0.2260
     60  O         67.3020   23.9120    9.7240 O.2    52  LYS52      -0.2867
     61  CB        64.3530   24.0030    8.5730 C.3    52  LYS52       0.0271
     62  CG        63.3200   23.0270    8.0260 C.3    52  LYS52       0.0035
     63  CD        63.9150   21.6290    7.9410 C.3    52  LYS52       0.0206
     64  CE        62.9220   20.6180    7.4090 C.3    52  LYS52       0.1093
     65  NZ        63.5370   19.2590    7.3580 N.3    52  LYS52      -0.1314
     66  N         59.2410   25.8150    7.3650 N.3    61  TYR61      -0.1227
     67  CA        58.6860   26.1700    6.0610 C.3    61  TYR61       0.1736
     68  C         57.2990   25.5640    5.9190 C.2    61  TYR61       0.2596
     69  O         56.9950   24.5460    6.5430 O.2    61  TYR61      -0.2718
     70  CB        59.6030   25.6890    4.9380 C.3    61  TYR61       0.0548
     71  CG        60.9670   26.3370    4.9940 C.ar   61  TYR61      -0.0200
     72  CD1       61.9350   25.8870    5.8980 C.ar   61  TYR61      -0.0009
     73  CD2       61.2780   27.4270    4.1780 C.ar   61  TYR61      -0.0009
     74  CE1       63.1800   26.5100    5.9910 C.ar   61  TYR61       0.0417
     75  CE2       62.5170   28.0570    4.2650 C.ar   61  TYR61       0.0417
     76  CZ        63.4610   27.5920    5.1710 C.ar   61  TYR61       0.1957
     77  OH        64.6850   28.2040    5.2730 O.3    61  TYR61      -0.2866
     78  N         56.4610   26.1850    5.0940 N.am   62  THR62      -0.1953
     79  CA        55.0930   25.7080    4.9340 C.3    62  THR62       0.1897
     80  C         54.4660   26.3320    3.6910 C.2    62  THR62       0.2313
     81  O         55.0930   27.1680    3.0220 O.2    62  THR62      -0.2863
     82  CB        54.2370   26.0920    6.1950 C.3    62  THR62       0.1794
     83  OG1       52.9930   25.3810    6.1740 O.3    62  THR62      -0.2208
     84  CG2       53.9270   27.6000    6.2000 C.3    62  THR62       0.0378
     85  N         48.0710   27.8560    3.5340 N.3    66  SER66      -0.1202
     86  CA        47.6140   27.0050    4.6350 C.3    66  SER66       0.2020
     87  C         46.9260   27.7740    5.7590 C.2    66  SER66       0.2619
     88  O         46.9920   29.0100    5.8390 O.2    66  SER66      -0.2717
     89  CB        48.7840   26.2140    5.2270 C.3    66  SER66       0.2103
     90  OG        49.6960   27.0670    5.9100 O.3    66  SER66      -0.2182
     91  N         46.2650   27.0280    6.6390 N.am   67  ARG67      -0.1965
     92  CA        45.5590   27.6420    7.7530 C.3    67  ARG67       0.1729
     93  C         46.5270   28.3230    8.7060 C.2    67  ARG67       0.2616
     94  O         46.2420   29.4120    9.2000 O.2    67  ARG67      -0.2715
     95  CB        44.7370   26.6010    8.5280 C.3    67  ARG67       0.0348
     96  CG        43.6890   25.8840    7.6960 C.3    67  ARG67       0.0492
     97  CD        42.8630   24.9260    8.5550 C.3    67  ARG67       0.2205
     98  NE        43.7030   23.9950    9.3130 N.pl3  67  ARG67      -0.0865
     99  CZ        43.2240   23.0570   10.1280 C.cat  67  ARG67       0.5346
    100  NH1       44.0510   22.2470   10.7850 N.pl3  67  ARG67       0.1354
    101  NH2       41.9120   22.9240   10.2780 N.pl3  67  ARG67       0.1354
    102  N         47.6680   27.6930    8.9780 N.am   68  LYS68      -0.1977
    103  CA        48.6120   28.3050    9.9100 C.3    68  LYS68       0.1596
    104  C         49.1270   29.6420    9.3570 C.2    68  LYS68       0.2287
    105  O         49.3590   30.5780   10.1180 O.2    68  LYS68      -0.2864
    106  CB        49.7880   27.3630   10.2170 C.3    68  LYS68       0.0298
    107  CG        50.8270   27.2320    9.1070 C.3    68  LYS68       0.0038
    108  CD        51.8540   26.1400    9.4520 C.3    68  LYS68       0.0206
    109  CE        51.2560   24.7450    9.2050 C.3    68  LYS68       0.1093
    110  NZ        50.8340   24.5440    7.7490 N.3    68  LYS68      -0.1314
    111  N         47.5800   22.9030    0.3930 N.3   123  GLN123     -0.1231
    112  CA        47.5360   22.6470    1.8280 C.3   123  GLN123      0.1698
    113  C         46.3890   23.2440    2.6360 C.2   123  GLN123      0.2592
    114  O         46.1270   24.4460    2.5800 O.2   123  GLN123     -0.2718
    115  CB        48.8700   23.0530    2.4540 C.3   123  GLN123      0.0381
    116  CG        49.0800   22.4720    3.8440 C.3   123  GLN123      0.0905
    117  CD        50.4560   22.7760    4.3870 C.2   123  GLN123      0.2608
    118  OE1       50.8090   23.9370    4.5830 O.2   123  GLN123     -0.2717
    119  NE2       51.2450   21.7340    4.6310 N.am  123  GLN123     -0.0878
    120  N         45.7010   22.3750    3.3760 N.am  124  SER124     -0.1952
    121  CA        44.5870   22.7570    4.2520 C.3   124  SER124      0.1924
    122  C         43.2110   22.9720    3.6190 C.2   124  SER124      0.2314
    123  O         42.2110   23.0280    4.3320 O.2   124  SER124     -0.2863
    124  CB        44.9590   24.0020    5.0600 C.3   124  SER124      0.2116
    125  OG        46.2150   23.8080    5.6840 O.3   124  SER124     -0.2180
    126  N         55.1130   28.6700   -1.6900 N.3   155  TRP155     -0.1241
    127  CA        55.9290   28.0030   -0.6780 C.3   155  TRP155      0.1605
    128  C         56.7340   29.0830    0.0400 C.2   155  TRP155      0.2264
    129  O         57.3110   29.9720   -0.5940 O.2   155  TRP155     -0.2867
    130  CB        56.8760   26.9660   -1.3160 C.3   155  TRP155      0.0550
    131  CG        57.5430   26.0710   -0.2910 C.ar  155  TRP155      0.0003
    132  CD1       58.8560   26.0970    0.1070 C.ar  155  TRP155      0.0946
    133  CD2       56.9070   25.0600    0.5020 C.ar  155  TRP155      0.0152
    134  NE1       59.0690   25.1650    1.1010 N.ar  155  TRP155     -0.2442
    135  CE2       57.8880   24.5170    1.3620 C.ar  155  TRP155      0.0810
    136  CE3       55.5960   24.5630    0.5690 C.ar  155  TRP155      0.0012
    137  CZ2       57.6010   23.5000    2.2840 C.ar  155  TRP155      0.0191
    138  CZ3       55.3100   23.5490    1.4850 C.ar  155  TRP155      0.0001
    139  CH2       56.3080   23.0290    2.3300 C.ar  155  TRP155      0.0015
@<TRIPOS>BOND
     1   126   127    1
     2   130   127    1
     3   130   131    1
     4   127   128    1
     5   129   128    2
     6   131   132   ar
     7   131   133   ar
     8   132   134   ar
     9   111   112    1
    10   133   136   ar
    11   133   135   ar
    12   136   138   ar
    13   134   135   ar
    14   135   137   ar
    15   138   139   ar
    16   112   115    1
    17   112   113    1
    18   137   139   ar
    19   115   116    1
    20   114   113    2
    21   113   120   am
    22    81    80    2
    23   120   121    1
    24    85    86    1
    25   122   121    1
    26   122   123    2
    27    80    79    1
    28   116   117    1
    29    73    75   ar
    30    73    71   ar
    31   121   124    1
    32    75    76   ar
    33   117   118    2
    34   117   119   am
    35    86    89    1
    36    86    87    1
    37    79    78    1
    38    79    82    1
    39    70    71    1
    40    70    67    1
    41    71    72   ar
    42   124   125    1
    43    78    68   am
    44    76    77    1
    45    76    74   ar
    46    89    90    1
    47    87    88    2
    48    87    91   am
    49    72    74   ar
    50    68    67    1
    51    68    69    2
    52    67    66    1
    53    83    82    1
    54    82    84    1
    55    91    92    1
    56    65    64    1
    57    64    63    1
    58    96    95    1
    59    96    97    1
    60   110   109    1
    61    92    95    1
    62    92    93    1
    63    63    62    1
    64    62    61    1
    65    97    98    1
    66    61    58    1
    67    93   102   am
    68    93    94    2
    69   102   103    1
    70   107   108    1
    71   107   106    1
    72    55    54    1
    73   109   108    1
    74    98    99    2
    75   104   103    1
    76   104   105    2
    77    60    59    2
    78   103   106    1
    79    58    59    1
    80    58    57    1
    81    99   101    1
    82    99   100    1
    83    54    53    1
    84    54    56    1
    85    53    50    1
    86    52    51    2
    87    47    46    1
    88    49    50    1
    89    49    44   am
    90    46    43    1
    91    46    48    1
    92    50    51    1
    93     7     6   ar
    94    37    36    2
    95    43    44    1
    96    43    42    1
    97    28    27    1
    98    28    29    1
    99    44    45    2
   100    30    29    1
   101    30    31    2
   102    33    31    1
   103    27    24    1
   104    36    42   am
   105    36    35    1
   106     6     8   ar
   107     6     5    1
   108    31    32    1
   109     5     2    1
   110    34    35    1
   111    34    25   am
   112    35    38    1
   113    40    38    1
   114    24    25    1
   115    24    23    1
   116    38    39    1
   117    25    26    2
   118     2     1    1
   119     2     3    1
   120    17    16    2
   121    23    16   am
   122    10    13    1
   123    10     9    1
   124    10    11    1
   125    16    15    1
   126     3     4    2
   127    39    41    1
   128    11    12    2
   129    14    15    1
   130    15    18    1
   131    18    19    1
   132    19    20    1
   133    20    21    2
   134    20    22   am
