@<TRIPOS>MOLECULE
tmp/1dnpB01.pdb
 102 99 0 0 0
SMALL
GASTEIGER

@<TRIPOS>ATOM
      1  N         26.5510   55.6560   18.9460 N.3    43  THR43      -0.1203
      2  CA        27.9870   55.8510   18.7280 C.3    43  THR43       0.1994
      3  C         28.4430   57.2240   19.2520 C.2    43  THR43       0.2617
      4  O         29.5590   57.3730   19.7680 O.2    43  THR43      -0.2717
      5  CB        28.3260   55.7530   17.2210 C.3    43  THR43       0.1784
      6  OG1       28.0260   54.4350   16.7490 O.3    43  THR43      -0.2211
      7  CG2       29.7990   56.0400   16.9560 C.3    43  THR43       0.0376
      8  N         27.5760   58.2240   19.1120 N.am   44  HIS44      -0.1975
      9  CA        27.8880   59.5690   19.5520 C.3    44  HIS44       0.1656
     10  C         27.5540   59.7640   21.0270 C.2    44  HIS44       0.2291
     11  O         27.5280   60.8860   21.5200 O.2    44  HIS44      -0.2864
     12  CB        27.1010   60.5770   18.6950 C.3    44  HIS44       0.0771
     13  CG        27.5450   60.6240   17.2690 C.ar   44  HIS44       0.0820
     14  ND1       26.8510   61.3100   16.2960 N.ar   44  HIS44      -0.2267
     15  CD2       28.6320   60.0930   16.6560 C.ar   44  HIS44       0.1154
     16  CE1       27.4920   61.2010   15.1430 C.ar   44  HIS44       0.1986
     17  NE2       28.5770   60.4690   15.3330 N.ar   44  HIS44      -0.2212
     18  N         29.8860   69.3420   13.1590 N.3   106  GLU106     -0.1231
     19  CA        30.6890   68.2340   13.6280 C.3   106  GLU106      0.1699
     20  C         31.1780   67.4570   12.4300 C.2   106  GLU106      0.2592
     21  O         30.4980   67.4350   11.4040 O.2   106  GLU106     -0.2718
     22  CB        29.9120   67.3520   14.5870 C.3   106  GLU106      0.0402
     23  CG        29.4380   68.0680   15.8500 C.3   106  GLU106      0.1161
     24  CD        28.0940   68.7270   15.6820 C.2   106  GLU106      0.3649
     25  OE1       27.7470   69.0960   14.5450 O.co2 106  GLU106     -0.2457
     26  OE2       27.3630   68.8850   16.6820 O.co2 106  GLU106     -0.2457
     27  N         32.3690   66.8640   12.5520 N.am  107  VAL107     -0.1966
     28  CA        32.9900   66.1230   11.4720 C.3   107  VAL107      0.1727
     29  C         32.0690   65.1090   10.7810 C.2   107  VAL107      0.2616
     30  O         31.9170   65.1530    9.5520 O.2   107  VAL107     -0.2715
     31  CB        34.3210   65.4320   11.9280 C.3   107  VAL107      0.0290
     32  CG1       34.8930   64.5810   10.8160 C.3   107  VAL107      0.0023
     33  CG2       35.3440   66.4510   12.2770 C.3   107  VAL107      0.0023
     34  N         31.4230   64.2280   11.5420 N.am  108  ASN108     -0.1958
     35  CA        30.5530   63.2220   10.9210 C.3   108  ASN108      0.1819
     36  C         29.3380   63.8310   10.1970 C.2   108  ASN108      0.2621
     37  O         28.9610   63.3870    9.1230 O.2   108  ASN108     -0.2715
     38  CB        30.0900   62.1690   11.9440 C.3   108  ASN108      0.1195
     39  CG        31.2390   61.2950   12.5100 C.2   108  ASN108      0.2630
     40  OD1       31.0770   60.7000   13.5780 O.2   108  ASN108     -0.2716
     41  ND2       32.3550   61.1710   11.7870 N.am  108  ASN108     -0.0877
     42  N         28.7370   64.8560   10.7780 N.am  109  GLU109     -0.1977
     43  CA        27.5840   65.5130   10.1800 C.3   109  GLU109      0.1602
     44  C         28.0060   66.2340    8.9110 C.2   109  GLU109      0.2287
     45  O         27.2970   66.2140    7.9250 O.2   109  GLU109     -0.2864
     46  CB        26.9810   66.5070   11.1410 C.3   109  GLU109      0.0415
     47  CG        26.2040   65.9220   12.2870 C.3   109  GLU109      0.1163
     48  CD        27.0530   65.2520   13.3920 C.2   109  GLU109      0.3649
     49  OE1       28.2640   64.9440   13.2280 O.co2 109  GLU109     -0.2457
     50  OE2       26.4730   64.9970   14.4610 O.co2 109  GLU109     -0.2457
     51  N         37.0260   67.1080   16.9670 N.3   292  CYS292     -0.1221
     52  CA        35.9050   66.1820   16.9200 C.3   292  CYS292      0.1808
     53  C         36.4140   64.7380   16.9260 C.2   292  CYS292      0.2601
     54  O         35.6540   63.8060   17.1360 O.2   292  CYS292     -0.2717
     55  CB        35.0720   66.4280   15.6550 C.3   292  CYS292      0.0970
     56  SG        34.1490   67.9580   15.6740 S.3   292  CYS292     -0.0800
     57  N         37.7140   64.5690   16.7260 N.am  293  LYS293     -0.1965
     58  CA        38.3110   63.2500   16.6780 C.3   293  LYS293      0.1728
     59  C         39.1470   62.8930   17.8840 C.2   293  LYS293      0.2616
     60  O         40.1250   62.1630   17.7510 O.2   293  LYS293     -0.2715
     61  CB        39.1700   63.1280   15.4420 C.3   293  LYS293      0.0311
     62  CG        38.4970   63.6210   14.1910 C.3   293  LYS293      0.0038
     63  CD        39.4230   63.4740   13.0130 C.3   293  LYS293      0.0206
     64  CE        38.7130   63.8550   11.7330 C.3   293  LYS293      0.1093
     65  NZ        39.5490   63.5250   10.5540 N.3   293  LYS293     -0.1314
     66  N         38.7810   63.4000   19.0540 N.am  294  HIS294     -0.1959
     67  CA        39.4910   63.0860   20.3030 C.3   294  HIS294      0.1787
     68  C         40.9250   63.5750   20.4360 C.2   294  HIS294      0.2620
     69  O         41.6940   63.0330   21.2270 O.2   294  HIS294     -0.2715
     70  CB        39.4870   61.5730   20.5610 C.3   294  HIS294      0.0785
     71  CG        38.1220   60.9820   20.5620 C.ar  294  HIS294      0.0821
     72  ND1       37.1200   61.4500   21.3840 N.ar  294  HIS294     -0.2267
     73  CD2       37.5530   60.0500   19.7610 C.ar  294  HIS294      0.1154
     74  CE1       35.9870   60.8400   21.0830 C.ar  294  HIS294      0.1986
     75  NE2       36.2240   59.9860   20.1010 N.ar  294  HIS294     -0.2212
     76  N         41.2960   64.5870   19.6720 N.am  295  ARG295     -0.1977
     77  CA        42.6540   65.1050   19.7450 C.3   295  ARG295      0.1597
     78  C         42.5910   66.3380   20.6400 C.2   295  ARG295      0.2287
     79  O         41.5570   67.0220   20.6980 O.2   295  ARG295     -0.2864
     80  CB        43.1650   65.4660   18.3410 C.3   295  ARG295      0.0334
     81  CG        42.9120   64.4000   17.2760 C.3   295  ARG295      0.0492
     82  CD        43.8170   63.1640   17.3890 C.3   295  ARG295      0.2205
     83  NE        43.1970   61.9370   16.8440 N.pl3 295  ARG295     -0.0865
     84  CZ        43.0060   61.6500   15.5460 C.cat 295  ARG295      0.5346
     85  NH1       43.3810   62.4940   14.5810 N.pl3 295  ARG295      0.1354
     86  NH2       42.4230   60.5010   15.2060 N.pl3 295  ARG295      0.1354
     87  N         28.5690   63.1730   28.1320 N.3   367  MET367     -0.1245
     88  CA        27.7350   63.0650   26.9510 C.3   367  MET367      0.1570
     89  C         26.6040   62.0560   27.1850 C.2   367  MET367      0.2261
     90  O         25.4270   62.3470   26.9650 O.2   367  MET367     -0.2867
     91  CB        28.5900   62.6430   25.7680 C.3   367  MET367      0.0387
     92  CG        27.9090   62.9010   24.4410 C.3   367  MET367      0.0595
     93  SD        27.2010   64.6060   24.2310 S.3   367  MET367     -0.1393
     94  CE        28.5620   65.4430   23.6370 C.3   367  MET367      0.0692
     95  N         28.6530   68.4190   21.2590 N.3   375  LEU375     -0.1245
     96  CA        30.0890   68.2410   21.0400 C.3   375  LEU375      0.1561
     97  C         30.9820   69.4430   21.2690 C.2   375  LEU375      0.2260
     98  O         31.9610   69.3390   22.0040 O.2   375  LEU375     -0.2867
     99  CB        30.3910   67.6390   19.6550 C.3   375  LEU375      0.0270
    100  CG        31.8570   67.2970   19.3450 C.3   375  LEU375      0.0019
    101  CD1       32.3380   66.1880   20.2620 C.3   375  LEU375      0.0001
    102  CD2       32.0110   66.8090   17.9210 C.3   375  LEU375      0.0001
@<TRIPOS>BOND
     1    45    44    2
     2    44    43    1
     3    37    36    2
     4    30    29    2
     5    43    42    1
     6    43    46    1
     7    36    42   am
     8    36    35    1
     9    65    64    1
    10    29    28    1
    11    29    34   am
    12    32    31    1
    13    35    34    1
    14    35    38    1
    15    46    47    1
    16    21    20    2
    17    28    31    1
    18    28    27    1
    19    64    63    1
    20    41    39   am
    21    31    33    1
    22    38    39    1
    23    47    48    1
    24    20    27   am
    25    20    19    1
    26    39    40    2
    27    63    62    1
    28    18    19    1
    29    49    48   ar
    30    48    50   ar
    31    19    22    1
    32    62    61    1
    33    25    24   ar
    34    85    84    1
    35    22    23    1
    36    16    17   ar
    37    16    14   ar
    38    86    84    1
    39    17    15   ar
    40    61    58    1
    41    84    83    2
    42    55    56    1
    43    55    52    1
    44    24    23    1
    45    24    26   ar
    46    14    13   ar
    47    15    13   ar
    48    58    57    1
    49    58    59    1
    50    57    53   am
    51     6     5    1
    52    83    82    1
    53    52    53    1
    54    52    51    1
    55    53    54    2
    56     7     5    1
    57     5     2    1
    58    13    12    1
    59    81    82    1
    60    81    80    1
    61    60    59    2
    62    59    66   am
    63   102   100    1
    64    80    77    1
    65    12     9    1
    66     2     1    1
    67     2     3    1
    68    66    67    1
    69     8     3   am
    70     8     9    1
    71     3     4    2
    72   100    99    1
    73   100   101    1
    74     9    10    1
    75    99    96    1
    76    76    77    1
    77    76    68   am
    78    77    78    1
    79    73    75   ar
    80    73    71   ar
    81    75    74   ar
    82    67    68    1
    83    67    70    1
    84    68    69    2
    85    70    71    1
    86    71    72   ar
    87    78    79    2
    88    10    11    2
    89    96    95    1
    90    96    97    1
    91    74    72   ar
    92    97    98    2
    93    94    93    1
    94    93    92    1
    95    92    91    1
    96    91    88    1
    97    88    89    1
    98    88    87    1
    99    90    89    2
