@<TRIPOS>MOLECULE
tmp/1do0E00.pdb
 187 179 0 0 0
SMALL
GASTEIGER

@<TRIPOS>ATOM
      1  N         92.4170   54.7190    0.8430 N.3    15  HIS15      -0.1226
      2  CA        91.8130   54.5720    2.1580 C.3    15  HIS15       0.1752
      3  C         91.2620   53.1970    2.4080 C.2    15  HIS15       0.2596
      4  O         90.9010   52.8750    3.5240 O.2    15  HIS15      -0.2718
      5  CB        90.6670   55.5630    2.3220 C.3    15  HIS15       0.0759
      6  CG        91.0760   56.9910    2.1710 C.ar   15  HIS15       0.0818
      7  ND1       91.7160   57.6920    3.1700 N.ar   15  HIS15      -0.2268
      8  CD2       90.9430   57.8460    1.1320 C.ar   15  HIS15       0.1154
      9  CE1       91.9580   58.9210    2.7490 C.ar   15  HIS15       0.1986
     10  NE2       91.4990   59.0390    1.5170 N.ar   15  HIS15      -0.2212
     11  N         91.1810   52.3790    1.3790 N.am   16  ILE16      -0.1966
     12  CA        90.6060   51.0720    1.5730 C.3    16  ILE16       0.1727
     13  C         91.3620   50.0220    0.8240 C.2    16  ILE16       0.2616
     14  O         91.5260   50.1310   -0.3830 O.2    16  ILE16      -0.2715
     15  CB        89.1620   51.0500    1.0830 C.3    16  ILE16       0.0290
     16  CG1       88.4040   52.2210    1.6860 C.3    16  ILE16       0.0022
     17  CG2       88.5000   49.7420    1.4570 C.3    16  ILE16       0.0023
     18  CD1       87.0740   52.4160    1.0720 C.3    16  ILE16       0.0001
     19  N         91.7990   49.0070    1.5660 N.am   17  ILE17      -0.1977
     20  CA        92.5340   47.8600    1.0640 C.3    17  ILE17       0.1596
     21  C         91.5870   46.8010    0.4870 C.2    17  ILE17       0.2287
     22  O         90.6620   46.3350    1.1530 O.2    17  ILE17      -0.2864
     23  CB        93.3860   47.2750    2.2000 C.3    17  ILE17       0.0276
     24  CG1       94.7490   47.9540    2.1960 C.3    17  ILE17       0.0022
     25  CG2       93.5730   45.7850    2.0430 C.3    17  ILE17       0.0022
     26  CD1       94.7030   49.4320    2.2450 C.3    17  ILE17       0.0001
     27  N         81.3530   41.3500    8.2270 N.3    58  THR58      -0.1203
     28  CA        81.6760   42.5270    9.0310 C.3    58  THR58       0.1994
     29  C         83.1260   42.9090    8.8510 C.2    58  THR58       0.2618
     30  O         83.9630   42.0870    8.4660 O.2    58  THR58      -0.2717
     31  CB        81.5320   42.2890   10.5220 C.3    58  THR58       0.1784
     32  OG1       80.5680   41.2670   10.7570 O.3    58  THR58      -0.2211
     33  CG2       81.1030   43.5730   11.2110 C.3    58  THR58       0.0376
     34  N         83.4060   44.1650    9.1720 N.am   59  GLY59      -0.1942
     35  CA        84.7480   44.6880    9.0690 C.3    59  GLY59       0.2014
     36  C         85.4980   44.3920    7.7860 C.2    59  GLY59       0.2639
     37  O         86.6510   43.9660    7.8500 O.2    59  GLY59      -0.2714
     38  N         84.8770   44.6090    6.6280 N.am   60  VAL60      -0.1963
     39  CA        85.5860   44.3730    5.3810 C.3    60  VAL60       0.1727
     40  C         85.6890   45.6220    4.5090 C.2    60  VAL60       0.2617
     41  O         86.4620   45.6600    3.5480 O.2    60  VAL60      -0.2715
     42  CB        84.9770   43.2030    4.5830 C.3    60  VAL60       0.0290
     43  CG1       84.9700   41.9790    5.4480 C.3    60  VAL60       0.0023
     44  CG2       83.5930   43.5370    4.1030 C.3    60  VAL60       0.0023
     45  N         84.9410   46.6620    4.8670 N.am   61  GLY61      -0.1940
     46  CA        85.0170   47.9010    4.1080 C.3    61  GLY61       0.2014
     47  C         83.7470   48.4940    3.5300 C.2    61  GLY61       0.2639
     48  O         83.7850   49.6080    3.0360 O.2    61  GLY61      -0.2714
     49  N         82.6340   47.7710    3.5800 N.am   62  LYS62      -0.1963
     50  CA        81.3680   48.2790    3.0450 C.3    62  LYS62       0.1728
     51  C         81.0700   49.7620    3.3770 C.2    62  LYS62       0.2617
     52  O         80.9200   50.5830    2.4730 O.2    62  LYS62      -0.2715
     53  CB        80.1970   47.3900    3.5060 C.3    62  LYS62       0.0311
     54  CG        80.3790   45.9100    3.2020 C.3    62  LYS62       0.0038
     55  CD        79.1030   45.1020    3.4120 C.3    62  LYS62       0.0206
     56  CE        78.7100   45.0130    4.8640 C.3    62  LYS62       0.1093
     57  NZ        79.8490   44.5530    5.6660 N.3    62  LYS62      -0.1314
     58  N         80.9950   50.1110    4.6570 N.am   63  THR63      -0.1937
     59  CA        80.7110   51.4970    5.0410 C.3    63  THR63       0.2028
     60  C         81.8650   52.4420    4.6830 C.2    63  THR63       0.2642
     61  O         81.6500   53.5570    4.1790 O.2    63  THR63      -0.2714
     62  CB        80.4520   51.6400    6.5720 C.3    63  THR63       0.1808
     63  OG1       79.7990   50.4700    7.0800 O.3    63  THR63      -0.2208
     64  CG2       79.5810   52.8480    6.8400 C.3    63  THR63       0.0379
     65  N         83.0850   51.9880    4.9570 N.am   64  GLU64      -0.1976
     66  CA        84.2570   52.7960    4.6870 C.3    64  GLU64       0.1602
     67  C         84.2280   53.2670    3.2440 C.2    64  GLU64       0.2287
     68  O         84.4150   54.4580    2.9570 O.2    64  GLU64      -0.2864
     69  CB        85.5270   51.9930    4.9620 C.3    64  GLU64       0.0415
     70  CG        86.8070   52.8140    4.9370 C.3    64  GLU64       0.1163
     71  CD        86.8370   53.9090    5.9850 C.2    64  GLU64       0.3649
     72  OE1       87.8350   54.6640    6.0070 O.co2  64  GLU64      -0.2457
     73  OE2       85.8770   54.0130    6.7820 O.co2  64  GLU64      -0.2457
     74  N         81.6270   56.0530    2.8400 N.3    67  ARG67      -0.1231
     75  CA        82.0340   57.3310    3.4060 C.3    67  ARG67       0.1694
     76  C         83.0520   57.9750    2.4890 C.2    67  ARG67       0.2591
     77  O         82.8770   59.1050    2.0120 O.2    67  ARG67      -0.2718
     78  CB        82.6880   57.1410    4.7640 C.3    67  ARG67       0.0321
     79  CG        81.7340   56.8330    5.8760 C.3    67  ARG67       0.0489
     80  CD        82.2970   57.2520    7.2220 C.3    67  ARG67       0.2205
     81  NE        81.2390   57.3110    8.2270 N.pl3  67  ARG67      -0.0865
     82  CZ        80.6290   56.2420    8.7330 C.cat  67  ARG67       0.5346
     83  NH1       80.9800   55.0240    8.3310 N.pl3  67  ARG67       0.1354
     84  NH2       79.6590   56.3930    9.6310 N.pl3  67  ARG67       0.1354
     85  N         84.1310   57.2420    2.2530 N.am   68  ARG68      -0.1980
     86  CA        85.1970   57.7360    1.4090 C.3    68  ARG68       0.1597
     87  C         84.6630   58.1490    0.0500 C.2    68  ARG68       0.2287
     88  O         85.1810   59.0680   -0.5840 O.2    68  ARG68      -0.2864
     89  CB        86.2590   56.6560    1.2540 C.3    68  ARG68       0.0334
     90  CG        86.8210   56.1860    2.5890 C.3    68  ARG68       0.0492
     91  CD        87.5950   57.2980    3.2710 C.3    68  ARG68       0.2205
     92  NE        88.0600   56.9090    4.5960 N.pl3  68  ARG68      -0.0865
     93  CZ        88.7990   57.6830    5.3810 C.cat  68  ARG68       0.5346
     94  NH1       89.1570   58.8860    4.9700 N.pl3  68  ARG68       0.1354
     95  NH2       89.1780   57.2590    6.5750 N.pl3  68  ARG68       0.1354
     96  N         74.7930   57.4050    7.5950 N.3    79  LYS79      -0.1245
     97  CA        74.6710   55.9770    7.8340 C.3    79  LYS79       0.1561
     98  C         73.3780   55.8130    8.5910 C.2    79  LYS79       0.2260
     99  O         73.0090   56.6770    9.3750 O.2    79  LYS79      -0.2867
    100  CB        75.8440   55.4650    8.6690 C.3    79  LYS79       0.0271
    101  CG        75.8400   53.9620    8.8990 C.3    79  LYS79       0.0035
    102  CD        77.1210   53.5230    9.6030 C.3    79  LYS79       0.0206
    103  CE        76.9660   52.1720   10.3350 C.3    79  LYS79       0.1093
    104  NZ        76.8180   50.9660    9.4650 N.3    79  LYS79      -0.1314
    105  N         73.3880   55.7070    3.3570 N.3   217  PHE217     -0.1241
    106  CA        73.8960   54.3480    3.5200 C.3   217  PHE217      0.1605
    107  C         73.0630   53.5440    4.5170 C.2   217  PHE217      0.2264
    108  O         73.1910   53.7390    5.7180 O.2   217  PHE217     -0.2867
    109  CB        75.3440   54.3910    3.9840 C.3   217  PHE217      0.0534
    110  CG        75.9470   53.0370    4.1850 C.ar  217  PHE217     -0.0203
    111  CD1       75.7250   52.3270    5.3550 C.ar  217  PHE217     -0.0042
    112  CD2       76.7090   52.4490    3.1880 C.ar  217  PHE217     -0.0042
    113  CE1       76.2490   51.0540    5.5280 C.ar  217  PHE217     -0.0003
    114  CE2       77.2310   51.1820    3.3550 C.ar  217  PHE217     -0.0003
    115  CZ        76.9950   50.4880    4.5280 C.ar  217  PHE217     -0.0000
    116  N         72.4830   50.4280    6.4650 N.3   219  ASP219     -0.1225
    117  CA        73.1640   49.2420    6.9330 C.3   219  ASP219      0.1805
    118  C         72.1910   48.2310    7.4600 C.2   219  ASP219      0.2597
    119  O         71.0590   48.5580    7.7910 O.2   219  ASP219     -0.2718
    120  CB        74.1600   49.6040    8.0320 C.3   219  ASP219      0.1424
    121  CG        75.0850   48.4390    8.3910 C.2   219  ASP219      0.3668
    122  OD1       75.5970   47.7610    7.4550 O.co2 219  ASP219     -0.2456
    123  OD2       75.3090   48.2220    9.6100 O.co2 219  ASP219     -0.2456
    124  N         72.6420   46.9880    7.5080 N.am  220  GLU220     -0.1979
    125  CA        71.8340   45.9130    8.0420 C.3   220  GLU220      0.1602
    126  C         70.4970   45.7820    7.3650 C.2   220  GLU220      0.2287
    127  O         69.4900   45.5520    8.0160 O.2   220  GLU220     -0.2864
    128  CB        71.6480   46.1410    9.5430 C.3   220  GLU220      0.0415
    129  CG        72.9920   46.3570   10.2750 C.3   220  GLU220      0.1163
    130  CD        73.6020   45.0620   10.7980 C.2   220  GLU220      0.3649
    131  OE1       74.8490   45.0060   10.9320 O.co2 220  GLU220     -0.2457
    132  OE2       72.8210   44.1160   11.0880 O.co2 220  GLU220     -0.2457
    133  N         73.4720   47.9660    2.7020 N.3   270  SER270     -0.1217
    134  CA        74.5000   46.9780    2.9780 C.3   270  SER270      0.1889
    135  C         73.9040   45.7610    3.6320 C.2   270  SER270      0.2288
    136  O         72.7450   45.7910    4.0370 O.2   270  SER270     -0.2866
    137  CB        75.5510   47.5820    3.8900 C.3   270  SER270      0.2089
    138  OG        76.3180   46.5560    4.4520 O.3   270  SER270     -0.2183
    139  N         88.4850   39.6820    4.6930 N.3   298  LEU298     -0.1245
    140  CA        89.8550   40.1500    4.6400 C.3   298  LEU298      0.1561
    141  C         90.7920   39.0480    5.1090 C.2   298  LEU298      0.2260
    142  O         90.4110   38.1750    5.8960 O.2   298  LEU298     -0.2867
    143  CB        90.0200   41.3960    5.5000 C.3   298  LEU298      0.0270
    144  CG        89.1680   42.5760    5.0230 C.3   298  LEU298      0.0019
    145  CD1       89.3060   43.7430    5.9760 C.3   298  LEU298      0.0001
    146  CD2       89.6070   42.9960    3.6380 C.3   298  LEU298      0.0001
    147  N         96.2200   46.9630    5.6940 N.3   306  ILE306     -0.1245
    148  CA        95.3100   47.8800    6.3920 C.3   306  ILE306      0.1561
    149  C         96.0230   48.6310    7.5110 C.2   306  ILE306      0.2260
    150  O         95.7530   49.8060    7.7650 O.2   306  ILE306     -0.2867
    151  CB        94.1410   47.1140    7.0390 C.3   306  ILE306      0.0252
    152  CG1       93.1200   46.6980    5.9770 C.3   306  ILE306      0.0019
    153  CG2       93.5000   47.9570    8.1440 C.3   306  ILE306      0.0019
    154  CD1       92.1200   45.6450    6.4860 C.3   306  ILE306      0.0001
    155  N         97.0140   52.2470    4.2520 N.3   310  PRO310     -0.2116
    156  CA        96.0200   53.3220    4.1000 C.3   310  PRO310      0.1372
    157  C         96.6150   54.6540    4.5300 C.2   310  PRO310      0.2244
    158  O         97.6020   54.6770    5.2480 O.2   310  PRO310     -0.2868
    159  CB        94.8700   52.8700    4.9940 C.3   310  PRO310      0.0268
    160  CG        95.0120   51.3570    5.0050 C.3   310  PRO310      0.0207
    161  CD        96.5050   51.1730    5.1220 C.3   310  PRO310      0.0892
    162  N         88.3640   43.6830   10.2300 N.3   355  ALA355     -0.1231
    163  CA        89.4600   44.6050   10.4870 C.3   355  ALA355      0.1694
    164  C         89.2990   45.2970   11.8430 C.2   355  ALA355      0.2591
    165  O         90.2760   45.7620   12.4400 O.2   355  ALA355     -0.2718
    166  CB        89.5420   45.6440    9.3580 C.3   355  ALA355      0.0304
    167  N         88.0660   45.3570   12.3280 N.am  356  ARG356     -0.1980
    168  CA        87.7940   45.9980   13.5930 C.3   356  ARG356      0.1597
    169  C         88.7300   45.4810   14.6710 C.2   356  ARG356      0.2287
    170  O         89.1860   46.2280   15.5280 O.2   356  ARG356     -0.2864
    171  CB        86.3480   45.7440   13.9910 C.3   356  ARG356      0.0334
    172  CG        85.3300   46.2470   12.9860 C.3   356  ARG356      0.0492
    173  CD        83.9530   45.6760   13.2800 C.3   356  ARG356      0.2205
    174  NE        82.9320   46.1030   12.3320 N.pl3 356  ARG356     -0.0865
    175  CZ        82.6660   47.3770   12.0580 C.cat 356  ARG356      0.5346
    176  NH1       83.3570   48.3380   12.6550 N.pl3 356  ARG356      0.1354
    177  NH2       81.6940   47.7010   11.2100 N.pl3 356  ARG356      0.1354
    178  N         92.1150   47.3940   15.8390 N.3   359  HIS359     -0.1241
    179  CA        92.1380   48.5250   16.7620 C.3   359  HIS359      0.1621
    180  C         92.4150   48.0820   18.1990 C.2   359  HIS359      0.2264
    181  O         93.3280   48.5790   18.8510 O.2   359  HIS359     -0.2867
    182  CB        90.8060   49.2900   16.7260 C.3   359  HIS359      0.0745
    183  CG        90.2900   49.5600   15.3450 C.ar  359  HIS359      0.0817
    184  ND1       91.1050   49.9500   14.3040 N.ar  359  HIS359     -0.2268
    185  CD2       89.0350   49.5090   14.8360 C.ar  359  HIS359      0.1154
    186  CE1       90.3790   50.1240   13.2140 C.ar  359  HIS359      0.1986
    187  NE2       89.1190   49.8640   13.5100 N.ar  359  HIS359     -0.2212
@<TRIPOS>BOND
     1    88    87    2
     2    14    13    2
     3    87    86    1
     4    21    20    1
     5    21    22    2
     6    13    19   am
     7    13    12    1
     8     1     2    1
     9    20    19    1
    10    20    23    1
    11    18    16    1
    12    15    17    1
    13    15    12    1
    14    15    16    1
    15     8    10   ar
    16     8     6   ar
    17    89    86    1
    18    89    90    1
    19    11    12    1
    20    11     3   am
    21    86    85    1
    22    10     9   ar
    23    77    76    2
    24    25    23    1
    25     2     5    1
    26     2     3    1
    27     6     5    1
    28     6     7   ar
    29    24    23    1
    30    24    26    1
    31    85    76   am
    32     3     4    2
    33    52    51    2
    34    76    75    1
    35    90    91    1
    36   133   134    1
    37     9     7   ar
    38    74    75    1
    39    68    67    2
    40   134   135    1
    41   134   137    1
    42    48    47    2
    43    50    51    1
    44    50    53    1
    45    50    49    1
    46   112   114   ar
    47   112   110   ar
    48    54    55    1
    49    54    53    1
    50    67    66    1
    51    91    92    1
    52   114   115   ar
    53   105   106    1
    54    51    58   am
    55    75    78    1
    56    55    56    1
    57   106   109    1
    58   106   107    1
    59    47    49   am
    60    47    46    1
    61    41    40    2
    62   135   136    2
    63   146   144    1
    64   137   138    1
    65   109   110    1
    66   156   155    1
    67   156   157    1
    68   156   159    1
    69    44    42    1
    70    46    45    1
    71    61    60    2
    72   110   111   ar
    73   155   161    1
    74    40    45   am
    75    40    39    1
    76   107   108    2
    77   115   113   ar
    78   157   158    2
    79    42    39    1
    80    42    43    1
    81    92    93    2
    82   140   139    1
    83   140   141    1
    84   140   143    1
    85    58    59    1
    86    60    65   am
    87    60    59    1
    88    66    65    1
    89    66    69    1
    90    78    79    1
    91    56    57    1
    92    70    69    1
    93    70    71    1
    94    94    93    1
    95   159   160    1
    96   160   161    1
    97   144   143    1
    98   144   145    1
    99    59    62    1
   100   141   142    2
   101   111   113   ar
   102    39    38    1
   103    93    95    1
   104   147   148    1
   105    79    80    1
   106   152   154    1
   107   152   151    1
   108    71    72   ar
   109    71    73   ar
   110   148   151    1
   111   148   149    1
   112   116   117    1
   113    62    64    1
   114    62    63    1
   115    38    36   am
   116   117   118    1
   117   117   120    1
   118   151   153    1
   119    80    81    1
   120   126   127    2
   121   126   125    1
   122   122   121   ar
   123   118   124   am
   124   118   119    2
   125   124   125    1
   126   149   150    2
   127    96    97    1
   128    36    37    2
   129    36    35    1
   130    97    98    1
   131    97   100    1
   132   120   121    1
   133   125   128    1
   134    27    28    1
   135    81    82    2
   136    83    82    1
   137   121   123   ar
   138    30    29    2
   139    98    99    2
   140   100   101    1
   141    82    84    1
   142    29    28    1
   143    29    34   am
   144   101   102    1
   145    28    31    1
   146    35    34    1
   147   166   163    1
   148   104   103    1
   149   128   129    1
   150   102   103    1
   151   162   163    1
   152   129   130    1
   153   163   164    1
   154    31    32    1
   155    31    33    1
   156   130   131   ar
   157   130   132   ar
   158   177   175    1
   159   164   167   am
   160   164   165    2
   161   175   174    2
   162   175   176    1
   163   167   168    1
   164   174   173    1
   165   172   173    1
   166   172   171    1
   167   186   187   ar
   168   186   184   ar
   169   187   185   ar
   170   168   171    1
   171   168   169    1
   172   184   183   ar
   173   169   170    2
   174   185   183   ar
   175   183   182    1
   176   178   179    1
   177   182   179    1
   178   179   180    1
   179   180   181    2
