@<TRIPOS>MOLECULE
tmp/1doaB00.pdb
 201 188 0 0 0
SMALL
GASTEIGER

@<TRIPOS>ATOM
      1  N         56.5880   20.2290   42.0560 N.3    10  ILE10      -0.1245
      2  CA        57.5320   19.4540   41.2470 C.3    10  ILE10       0.1561
      3  C         57.0180   19.2870   39.8170 C.2    10  ILE10       0.2260
      4  O         57.8040   19.1040   38.8830 O.2    10  ILE10      -0.2867
      5  CB        57.8050   18.0570   41.8790 C.3    10  ILE10       0.0252
      6  CG1       58.6280   18.2070   43.1610 C.3    10  ILE10       0.0019
      7  CG2       58.5320   17.1420   40.9010 C.3    10  ILE10       0.0019
      8  CD1       59.0120   16.8850   43.8070 C.3    10  ILE10       0.0001
      9  N         56.9050   20.3530   34.8720 N.3    13  GLU13      -0.1245
     10  CA        57.1660   19.6280   33.6320 C.3    13  GLU13       0.1567
     11  C         55.7900   19.2850   33.0570 C.2    13  GLU13       0.2260
     12  O         55.2820   19.9820   32.1760 O.2    13  GLU13      -0.2867
     13  CB        57.9300   18.3350   33.9490 C.3    13  GLU13       0.0388
     14  CG        59.0950   18.5130   34.9250 C.3    13  GLU13       0.1160
     15  CD        59.2210   17.3750   35.9280 C.2    13  GLU13       0.3649
     16  OE1       58.1980   16.7350   36.2530 O.co2  13  GLU13      -0.2457
     17  OE2       60.3490   17.1260   36.4020 O.co2  13  GLU13      -0.2457
     18  N         62.3300   -5.7850   31.1250 N.3    71  LEU71      -0.1231
     19  CA        62.7760   -4.4050   31.1720 C.3    71  LEU71       0.1693
     20  C         64.0340   -4.5170   32.0100 C.2    71  LEU71       0.2593
     21  O         63.9840   -4.9980   33.1350 O.2    71  LEU71      -0.2718
     22  CB        61.7450   -3.5520   31.9020 C.3    71  LEU71       0.0284
     23  CG        61.6980   -2.0710   31.5460 C.3    71  LEU71       0.0019
     24  CD1       60.9120   -1.9020   30.2520 C.3    71  LEU71       0.0001
     25  CD2       61.0320   -1.2910   32.6590 C.3    71  LEU71       0.0001
     26  N         65.1670   -4.1270   31.4460 N.am   72  THR72      -0.1939
     27  CA        66.4300   -4.2330   32.1590 C.3    72  THR72       0.2028
     28  C         67.0490   -2.8720   32.3810 C.2    72  THR72       0.2642
     29  O         66.9840   -2.0030   31.5130 O.2    72  THR72      -0.2714
     30  CB        67.4320   -5.1130   31.3750 C.3    72  THR72       0.1808
     31  OG1       66.8570   -6.4040   31.1330 O.3    72  THR72      -0.2208
     32  CG2       68.7170   -5.2910   32.1550 C.3    72  THR72       0.0379
     33  N         67.6190   -2.6720   33.5620 N.am   73  LEU73      -0.1977
     34  CA        68.2660   -1.4040   33.8640 C.3    73  LEU73       0.1596
     35  C         69.7510   -1.5090   33.5650 C.2    73  LEU73       0.2287
     36  O         70.5010   -2.1680   34.2880 O.2    73  LEU73      -0.2864
     37  CB        68.0580   -0.9980   35.3200 C.3    73  LEU73       0.0297
     38  CG        68.6850    0.3620   35.6460 C.3    73  LEU73       0.0022
     39  CD1       68.1970    1.3990   34.6580 C.3    73  LEU73       0.0001
     40  CD2       68.3470    0.7880   37.0610 C.3    73  LEU73       0.0001
     41  N         69.3270   -5.4580   37.5770 N.3    82  LEU82      -0.1245
     42  CA        67.9680   -4.9670   37.7910 C.3    82  LEU82       0.1561
     43  C         67.0630   -5.2860   36.6140 C.2    82  LEU82       0.2260
     44  O         67.1070   -4.6130   35.5870 O.2    82  LEU82      -0.2867
     45  CB        67.9510   -3.4570   38.0430 C.3    82  LEU82       0.0270
     46  CG        68.4340   -2.9310   39.3950 C.3    82  LEU82       0.0019
     47  CD1       69.9420   -2.8990   39.4190 C.3    82  LEU82       0.0001
     48  CD2       67.8870   -1.5330   39.6280 C.3    82  LEU82       0.0001
     49  N         62.9560   -7.1090   35.3660 N.3    84  LEU84      -0.1245
     50  CA        61.5490   -7.3130   35.7020 C.3    84  LEU84       0.1561
     51  C         60.9720   -8.2960   34.6830 C.2    84  LEU84       0.2260
     52  O         60.7790   -7.9300   33.5250 O.2    84  LEU84      -0.2867
     53  CB        60.7710   -5.9910   35.5970 C.3    84  LEU84       0.0270
     54  CG        61.1050   -4.7590   36.4470 C.3    84  LEU84       0.0019
     55  CD1       60.3490   -3.5490   35.9190 C.3    84  LEU84       0.0001
     56  CD2       60.7480   -5.0040   37.8940 C.3    84  LEU84       0.0001
     57  N         63.0780   -2.0310   44.9190 N.3    98  PHE98      -0.1241
     58  CA        64.0200   -1.6870   43.8620 C.3    98  PHE98       0.1605
     59  C         64.8100   -0.4270   44.1610 C.2    98  PHE98       0.2264
     60  O         64.3110    0.6820   43.9910 O.2    98  PHE98      -0.2867
     61  CB        63.2980   -1.5590   42.5220 C.3    98  PHE98       0.0534
     62  CG        63.1510   -2.8600   41.8040 C.ar   98  PHE98      -0.0203
     63  CD1       62.6420   -3.9760   42.4610 C.ar   98  PHE98      -0.0042
     64  CD2       63.5630   -2.9890   40.4850 C.ar   98  PHE98      -0.0042
     65  CE1       62.5500   -5.2010   41.8180 C.ar   98  PHE98      -0.0003
     66  CE2       63.4750   -4.2130   39.8310 C.ar   98  PHE98      -0.0003
     67  CZ        62.9670   -5.3220   40.5020 C.ar   98  PHE98      -0.0000
     68  N         67.7950    2.3680   43.6340 N.3   100  LEU100     -0.1245
     69  CA        68.4700    3.0260   42.5240 C.3   100  LEU100      0.1561
     70  C         69.2520    4.2020   43.0760 C.2   100  LEU100      0.2260
     71  O         68.6670    5.2290   43.4040 O.2   100  LEU100     -0.2867
     72  CB        67.4460    3.5170   41.4960 C.3   100  LEU100      0.0270
     73  CG        67.9280    4.4360   40.3630 C.3   100  LEU100      0.0019
     74  CD1       69.0670    3.7910   39.5840 C.3   100  LEU100      0.0001
     75  CD2       66.7700    4.7630   39.4370 C.3   100  LEU100      0.0001
     76  N         71.7920    6.4840   33.6740 N.3   106  TYR106     -0.1241
     77  CA        71.3250    5.1430   33.3810 C.3   106  TYR106      0.1605
     78  C         70.4650    5.1150   32.1350 C.2   106  TYR106      0.2264
     79  O         70.1580    6.1570   31.5520 O.2   106  TYR106     -0.2867
     80  CB        70.4980    4.6170   34.5620 C.3   106  TYR106      0.0534
     81  CG        69.1560    5.3120   34.7180 C.ar  106  TYR106     -0.0201
     82  CD1       69.0820    6.6570   35.0740 C.ar  106  TYR106     -0.0009
     83  CD2       67.9650    4.6310   34.4650 C.ar  106  TYR106     -0.0009
     84  CE1       67.8560    7.3050   35.1680 C.ar  106  TYR106      0.0417
     85  CE2       66.7400    5.2620   34.5600 C.ar  106  TYR106      0.0417
     86  CZ        66.6870    6.5990   34.9100 C.ar  106  TYR106      0.1957
     87  OH        65.4640    7.2320   34.9910 O.3   106  TYR106     -0.2866
     88  N         67.2940    2.3690   29.9890 N.3   108  ILE108     -0.1245
     89  CA        66.4230    1.1960   29.9900 C.3   108  ILE108      0.1561
     90  C         66.5480    0.2980   28.7530 C.2   108  ILE108      0.2260
     91  O         66.4830    0.7690   27.6120 O.2   108  ILE108     -0.2867
     92  CB        64.9440    1.6060   30.0960 C.3   108  ILE108      0.0252
     93  CG1       64.7490    2.6380   31.2090 C.3   108  ILE108      0.0019
     94  CG2       64.0810    0.3680   30.3300 C.3   108  ILE108      0.0019
     95  CD1       63.3240    3.1740   31.3060 C.3   108  ILE108      0.0001
     96  N         55.5380    5.7680   31.2540 N.3   126  GLN126     -0.1245
     97  CA        55.8500    5.5990   32.6670 C.3   126  GLN126      0.1566
     98  C         55.3320    6.7610   33.5320 C.2   126  GLN126      0.2260
     99  O         55.5940    7.9400   33.2500 O.2   126  GLN126     -0.2867
    100  CB        57.3600    5.4580   32.8240 C.3   126  GLN126      0.0367
    101  CG        57.8510    5.3020   34.2440 C.3   126  GLN126      0.0905
    102  CD        59.3630    5.2910   34.3110 C.2   126  GLN126      0.2608
    103  OE1       60.0050    6.3350   34.2220 O.2   126  GLN126     -0.2717
    104  NE2       59.9420    4.1040   34.4400 N.am  126  GLN126     -0.0878
    105  N         55.3310    8.2370   37.3570 N.3   128  THR128     -0.1218
    106  CA        55.9700    8.1850   38.6680 C.3   128  THR128      0.1862
    107  C         55.1450    8.8580   39.7660 C.2   128  THR128      0.2287
    108  O         54.9180   10.0730   39.7350 O.2   128  THR128     -0.2866
    109  CB        57.3650    8.8230   38.6360 C.3   128  THR128      0.1770
    110  OG1       58.1010    8.3170   37.5150 O.3   128  THR128     -0.2211
    111  CG2       58.1200    8.4880   39.9140 C.3   128  THR128      0.0375
    112  N         53.8880   12.9070   39.8140 N.3   135  ILE135     -0.1231
    113  CA        54.8400   14.0000   39.6940 C.3   135  ILE135      0.1692
    114  C         55.6820   13.9340   38.4190 C.2   135  ILE135      0.2592
    115  O         56.5650   14.7680   38.2100 O.2   135  ILE135     -0.2718
    116  CB        55.7730   14.0560   40.9300 C.3   135  ILE135      0.0266
    117  CG1       56.6300   12.7950   41.0190 C.3   135  ILE135      0.0019
    118  CG2       54.9450   14.1800   42.2020 C.3   135  ILE135      0.0020
    119  CD1       57.5940   12.8030   42.1820 C.3   135  ILE135      0.0001
    120  N         55.3840   12.9690   37.5520 N.am  136  ASP136     -0.1974
    121  CA        56.1460   12.8160   36.3170 C.3   136  ASP136      0.1709
    122  C         55.4960   11.9470   35.2440 C.2   136  ASP136      0.2293
    123  O         55.0750   10.8190   35.5010 O.2   136  ASP136     -0.2864
    124  CB        57.5450   12.2740   36.6340 C.3   136  ASP136      0.1436
    125  CG        58.4270   12.1590   35.4010 C.2   136  ASP136      0.3671
    126  OD1       58.4080   13.0810   34.5510 O.co2 136  ASP136     -0.2456
    127  OD2       59.1500   11.1440   35.2890 O.co2 136  ASP136     -0.2456
    128  N         58.6460    7.0510   26.0760 N.3   140  TYR140     -0.1241
    129  CA        59.8220    6.5160   25.3780 C.3   140  TYR140      0.1605
    130  C         59.3580    5.7960   24.1160 C.2   140  TYR140      0.2264
    131  O         58.8510    4.6750   24.1920 O.2   140  TYR140     -0.2867
    132  CB        60.5820    5.5180   26.2450 C.3   140  TYR140      0.0534
    133  CG        61.0760    6.0770   27.5430 C.ar  140  TYR140     -0.0201
    134  CD1       62.1520    6.9590   27.5850 C.ar  140  TYR140     -0.0009
    135  CD2       60.4590    5.7250   28.7450 C.ar  140  TYR140     -0.0009
    136  CE1       62.6040    7.4820   28.8040 C.ar  140  TYR140      0.0417
    137  CE2       60.8960    6.2320   29.9650 C.ar  140  TYR140      0.0417
    138  CZ        61.9670    7.1070   29.9910 C.ar  140  TYR140      0.1957
    139  OH        62.3960    7.5960   31.2010 O.3   140  TYR140     -0.2866
    140  N         67.7410   11.4430   40.0870 N.3   162  PRO162     -0.2116
    141  CA        67.5750   12.6210   40.9490 C.3   162  PRO162      0.1372
    142  C         68.4820   12.5880   42.1770 C.2   162  PRO162      0.2244
    143  O         68.8960   11.5150   42.6210 O.2   162  PRO162     -0.2868
    144  CB        66.1030   12.5410   41.3590 C.3   162  PRO162      0.0268
    145  CG        65.4670   11.7680   40.2470 C.3   162  PRO162      0.0207
    146  CD        66.4810   10.6870   40.0070 C.3   162  PRO162      0.0892
    147  N         64.2370   14.5730   47.6410 N.3   167  ALA167     -0.1245
    148  CA        63.4640   13.4290   47.1680 C.3   167  ALA167      0.1562
    149  C         64.3150   12.1690   46.9810 C.2   167  ALA167      0.2260
    150  O         64.8420   11.8890   45.8990 O.2   167  ALA167     -0.2867
    151  CB        62.7250   13.7840   45.8850 C.3   167  ALA167      0.0290
    152  N         58.8130    5.4010   45.4130 N.3   171  TYR171     -0.1241
    153  CA        57.7510    5.7190   44.4640 C.3   171  TYR171      0.1605
    154  C         56.9460    4.5510   43.9160 C.2   171  TYR171      0.2264
    155  O         57.4340    3.4290   43.8120 O.2   171  TYR171     -0.2867
    156  CB        58.3170    6.5070   43.2840 C.3   171  TYR171      0.0534
    157  CG        59.3030    7.5720   43.6780 C.ar  171  TYR171     -0.0201
    158  CD1       60.5830    7.2320   44.1070 C.ar  171  TYR171     -0.0009
    159  CD2       58.9620    8.9160   43.6290 C.ar  171  TYR171     -0.0009
    160  CE1       61.4910    8.1990   44.4770 C.ar  171  TYR171      0.0417
    161  CE2       59.8770    9.8990   44.0030 C.ar  171  TYR171      0.0417
    162  CZ        61.1370    9.5270   44.4260 C.ar  171  TYR171      0.1957
    163  OH        62.0450   10.4860   44.8160 O.3   171  TYR171     -0.2866
    164  N         55.2510    3.1550   40.7190 N.3   173  ILE173     -0.1245
    165  CA        55.3430    3.3550   39.2880 C.3   173  ILE173      0.1561
    166  C         54.3150    2.5610   38.5120 C.2   173  ILE173      0.2260
    167  O         54.1470    1.3600   38.7200 O.2   173  ILE173     -0.2867
    168  CB        56.7440    3.0090   38.7610 C.3   173  ILE173      0.0252
    169  CG1       57.8040    3.7210   39.6000 C.3   173  ILE173      0.0019
    170  CG2       56.8730    3.4400   37.3190 C.3   173  ILE173      0.0019
    171  CD1       59.2070    3.4890   39.1310 C.3   173  ILE173      0.0001
    172  N         54.7210   -1.1420   39.9510 N.3   190  TRP190     -0.1241
    173  CA        55.8450   -1.5750   40.7570 C.3   190  TRP190      0.1605
    174  C         56.3640   -0.4130   41.5760 C.2   190  TRP190      0.2264
    175  O         56.0470    0.7450   41.3010 O.2   190  TRP190     -0.2867
    176  CB        56.9580   -2.1680   39.8690 C.3   190  TRP190      0.0550
    177  CG        57.3050   -1.3520   38.6470 C.ar  190  TRP190      0.0003
    178  CD1       56.4730   -1.0240   37.6210 C.ar  190  TRP190      0.0946
    179  CD2       58.5570   -0.7170   38.3640 C.ar  190  TRP190      0.0152
    180  NE1       57.1170   -0.2110   36.7200 N.ar  190  TRP190     -0.2442
    181  CE2       58.4010   -0.0050   37.1530 C.ar  190  TRP190      0.0810
    182  CE3       59.7980   -0.6760   39.0170 C.ar  190  TRP190      0.0012
    183  CZ2       59.4380    0.7460   36.5800 C.ar  190  TRP190      0.0191
    184  CZ3       60.8310    0.0690   38.4490 C.ar  190  TRP190      0.0001
    185  CH2       60.6410    0.7700   37.2410 C.ar  190  TRP190      0.0015
    186  N         59.6710    1.7010   43.2760 N.3   192  LEU192     -0.1245
    187  CA        61.0940    2.0130   43.2040 C.3   192  LEU192      0.1561
    188  C         61.4930    2.8580   44.3990 C.2   192  LEU192      0.2260
    189  O         60.6930    3.6400   44.9100 O.2   192  LEU192     -0.2867
    190  CB        61.4160    2.7890   41.9240 C.3   192  LEU192      0.0270
    191  CG        62.8480    3.3240   41.7950 C.3   192  LEU192      0.0019
    192  CD1       63.7950    2.2190   41.3580 C.3   192  LEU192      0.0001
    193  CD2       62.8710    4.4620   40.8050 C.3   192  LEU192      0.0001
    194  N         64.7690    5.4020   45.8980 N.3   194  ILE194     -0.1245
    195  CA        66.0440    6.0870   45.7440 C.3   194  ILE194      0.1561
    196  C         66.7240    6.0390   47.1140 C.2   194  ILE194      0.2260
    197  O         66.0520    5.9310   48.1460 O.2   194  ILE194     -0.2867
    198  CB        65.8650    7.5700   45.3340 C.3   194  ILE194      0.0252
    199  CG1       64.8650    7.6840   44.1830 C.3   194  ILE194      0.0019
    200  CG2       67.2030    8.1770   44.9250 C.3   194  ILE194      0.0019
    201  CD1       65.1920    6.8190   42.9940 C.3   194  ILE194      0.0001
@<TRIPOS>BOND
     1   130   131    2
     2   130   129    1
     3   129   128    1
     4   129   132    1
     5   132   133    1
     6   133   134   ar
     7   133   135   ar
     8   134   136   ar
     9    91    90    2
    10   135   137   ar
    11    90    89    1
    12   136   138   ar
    13   137   138   ar
    14    88    89    1
    15    89    92    1
    16   138   139    1
    17    92    94    1
    18    92    93    1
    19    24    23    1
    20    18    19    1
    21    31    30    1
    22    19    22    1
    23    19    20    1
    24    93    95    1
    25    96    97    1
    26    30    32    1
    27    30    27    1
    28    26    20   am
    29    26    27    1
    30    29    28    2
    31    23    22    1
    32    23    25    1
    33    79    78    2
    34    20    21    2
    35    78    77    1
    36    27    28    1
    37    12    11    2
    38    28    33   am
    39    97   100    1
    40    97    98    1
    41   100   101    1
    42    11    10    1
    43    99    98    2
    44    77    76    1
    45    77    80    1
    46    52    51    2
    47    33    34    1
    48    35    34    1
    49    35    36    2
    50    10    13    1
    51    10     9    1
    52    34    37    1
    53    13    14    1
    54   103   102    2
    55   101   102    1
    56   102   104   am
    57    83    85   ar
    58    83    81   ar
    59   126   125   ar
    60    85    86   ar
    61    80    81    1
    62    39    38    1
    63    51    50    1
    64    81    82   ar
    65    86    87    1
    66    86    84   ar
    67    14    15    1
    68    82    84   ar
    69   122   123    2
    70   122   121    1
    71   127   125   ar
    72    37    38    1
    73    49    50    1
    74   125   124    1
    75    44    43    2
    76    53    50    1
    77    53    54    1
    78    38    40    1
    79    55    54    1
    80    15    16   ar
    81    15    17   ar
    82   121   124    1
    83   121   120    1
    84    54    56    1
    85   183   181   ar
    86   183   185   ar
    87    43    42    1
    88   180   181   ar
    89   180   178   ar
    90   181   179   ar
    91   185   184   ar
    92   170   168    1
    93   105   106    1
    94   110   109    1
    95   120   114   am
    96    41    42    1
    97   178   177   ar
    98    42    45    1
    99    45    46    1
   100   115   114    2
   101   179   177   ar
   102   179   182   ar
   103   114   113    1
   104   184   182   ar
   105   166   167    2
   106   166   165    1
   107   109   106    1
   108   109   111    1
   109   177   176    1
   110   106   107    1
   111   168   165    1
   112   168   169    1
   113     4     3    2
   114   171   169    1
   115   165   164    1
   116    46    47    1
   117    46    48    1
   118    75    73    1
   119    74    73    1
   120   113   112    1
   121   113   116    1
   122   108   107    2
   123     3     2    1
   124    66    64   ar
   125    66    67   ar
   126   176   173    1
   127   172   173    1
   128   146   140    1
   129   146   145    1
   130   140   141    1
   131   145   144    1
   132    73    72    1
   133    64    62   ar
   134    67    65   ar
   135   173   174    1
   136   193   191    1
   137     7     5    1
   138   116   117    1
   139   116   118    1
   140   141   144    1
   141   141   142    1
   142   117   119    1
   143     2     5    1
   144     2     1    1
   145   175   174    2
   146   192   191    1
   147    72    69    1
   148   191   190    1
   149    62    63   ar
   150    62    61    1
   151    65    63   ar
   152     5     6    1
   153   190   187    1
   154   142   143    2
   155    61    58    1
   156    69    70    1
   157    69    68    1
   158   201   199    1
   159    70    71    2
   160     6     8    1
   161   187   186    1
   162   187   188    1
   163   156   157    1
   164   156   153    1
   165   159   157   ar
   166   159   161   ar
   167   157   158   ar
   168   155   154    2
   169    58    59    1
   170    58    57    1
   171   154   153    1
   172    60    59    2
   173   161   162   ar
   174   158   160   ar
   175   199   198    1
   176   188   189    2
   177   162   160   ar
   178   162   163    1
   179   153   152    1
   180   200   198    1
   181   198   195    1
   182   195   194    1
   183   195   196    1
   184   151   148    1
   185   150   149    2
   186   149   148    1
   187   196   197    2
   188   148   147    1
