@<TRIPOS>MOLECULE
tmp/1doeA00.pdb
 201 191 0 0 0
SMALL
GASTEIGER

@<TRIPOS>ATOM
      1  N         22.7170   98.2160   71.0800 N.3     8  ILE8       -0.1231
      2  CA        23.9360   98.6730   70.4180 C.3     8  ILE8        0.1692
      3  C         23.6340   98.7760   68.9450 C.2     8  ILE8        0.2592
      4  O         23.2690   97.7730   68.3320 O.2     8  ILE8       -0.2718
      5  CB        25.1000   97.6810   70.6250 C.3     8  ILE8        0.0266
      6  CG1       25.2740   97.3900   72.1150 C.3     8  ILE8        0.0019
      7  CG2       26.4100   98.2540   70.0640 C.3     8  ILE8        0.0020
      8  CD1       25.3630   98.6380   73.0030 C.3     8  ILE8        0.0001
      9  N         23.6620   99.9950   68.4130 N.am    9  GLY9       -0.1957
     10  CA        23.4160  100.1760   66.9880 C.3     9  GLY9        0.1869
     11  C         22.0690  100.7320   66.5920 C.2     9  GLY9        0.2309
     12  O         20.9930  100.2250   66.9620 O.2     9  GLY9       -0.2863
     13  N         20.7740  101.0540   63.3450 N.3    11  GLY11      -0.1210
     14  CA        20.3730  100.8220   61.9730 C.3    11  GLY11       0.1940
     15  C         18.9350  100.3250   62.1070 C.2    11  GLY11       0.2454
     16  O         18.3150  100.4800   63.1820 O.2    11  GLY11      -0.2732
     17  N         18.3540   99.7350   61.0480 N.am   12  PRO12      -0.2717
     18  CA        16.9760   99.2020   61.0760 C.3    12  PRO12       0.1535
     19  C         16.7020   98.3150   62.3210 C.2    12  PRO12       0.2599
     20  O         15.7370   98.5500   63.0490 O.2    12  PRO12      -0.2715
     21  CB        16.9190   98.3560   59.8070 C.3    12  PRO12       0.0310
     22  CG        17.7920   99.1140   58.8730 C.3    12  PRO12       0.0237
     23  CD        18.9530   99.6160   59.7090 C.3    12  PRO12       0.0939
     24  N         17.5470   97.3090   62.5720 N.am   13  SER13      -0.1950
     25  CA        17.3820   96.4090   63.7370 C.3    13  SER13       0.1924
     26  C         17.2230   97.1350   65.0700 C.2    13  SER13       0.2314
     27  O         16.2260   96.9580   65.7660 O.2    13  SER13      -0.2863
     28  CB        18.5850   95.4650   63.8980 C.3    13  SER13       0.2116
     29  OG        18.9020   94.8180   62.6930 O.3    13  SER13      -0.2180
     30  N         22.7820  102.9120   71.5710 N.3    31  LEU31      -0.1231
     31  CA        24.1140  103.4870   71.4350 C.3    31  LEU31       0.1693
     32  C         24.5260  103.3450   69.9650 C.2    31  LEU31       0.2592
     33  O         24.4680  102.2520   69.3990 O.2    31  LEU31      -0.2718
     34  CB        25.1060  102.7520   72.3330 C.3    31  LEU31       0.0284
     35  CG        24.7890  102.8860   73.8260 C.3    31  LEU31       0.0019
     36  CD1       25.8660  102.2400   74.6550 C.3    31  LEU31       0.0001
     37  CD2       24.7210  104.3470   74.1770 C.3    31  LEU31       0.0001
     38  N         24.8300  104.4500   69.3100 N.am   32  GLU32      -0.1966
     39  CA        25.2620  104.3910   67.9210 C.3    32  GLU32       0.1733
     40  C         26.6210  105.0660   67.7780 C.2    32  GLU32       0.2616
     41  O         26.8100  106.1870   68.2470 O.2    32  GLU32      -0.2715
     42  CB        24.2290  105.0500   67.0000 C.3    32  GLU32       0.0429
     43  CG        24.7300  105.3270   65.5590 C.3    32  GLU32       0.1163
     44  CD        25.1350  104.0630   64.7700 C.2    32  GLU32       0.3649
     45  OE1       24.3200  103.1410   64.6380 O.co2  32  GLU32      -0.2457
     46  OE2       26.2560  104.0040   64.2490 O.co2  32  GLU32      -0.2457
     47  N         27.5500  104.3750   67.1180 N.am   33  ARG33      -0.1963
     48  CA        28.9210  104.8490   66.8800 C.3    33  ARG33       0.1729
     49  C         28.9880  106.0580   65.9410 C.2    33  ARG33       0.2616
     50  O         29.8200  106.9450   66.1270 O.2    33  ARG33      -0.2715
     51  CB        29.7690  103.7050   66.2920 C.3    33  ARG33       0.0348
     52  CG        31.2120  104.0550   65.9610 C.3    33  ARG33       0.0492
     53  CD        31.9010  103.0230   65.0410 C.3    33  ARG33       0.2205
     54  NE        32.6210  101.9680   65.7650 N.pl3  33  ARG33      -0.0865
     55  CZ        33.7490  102.1420   66.4640 C.cat  33  ARG33       0.5346
     56  NH1       34.3140  103.3430   66.5660 N.pl3  33  ARG33       0.1354
     57  NH2       34.3130  101.1070   67.0780 N.pl3  33  ARG33       0.1354
     58  N         28.1140  106.0890   64.9360 N.am   34  GLN34      -0.1977
     59  CA        28.0860  107.1820   63.9610 C.3    34  GLN34       0.1601
     60  C         27.1390  108.3340   64.2900 C.2    34  GLN34       0.2287
     61  O         26.4970  108.3830   65.3390 O.2    34  GLN34      -0.2864
     62  CB        27.6780  106.6580   62.5800 C.3    34  GLN34       0.0394
     63  CG        28.5440  105.5590   61.9950 C.3    34  GLN34       0.0908
     64  CD        29.9960  105.9510   61.7840 C.2    34  GLN34       0.2608
     65  OE1       30.8760  105.1270   61.9790 O.2    34  GLN34      -0.2717
     66  NE2       30.2520  107.1910   61.3750 N.am   34  GLN34      -0.0878
     67  N         24.3960  107.4290   59.1840 N.3    39  VAL39      -0.1245
     68  CA        23.4980  106.3040   59.0860 C.3    39  VAL39       0.1561
     69  C         22.5000  106.5540   57.9480 C.2    39  VAL39       0.2260
     70  O         22.2350  105.6840   57.1150 O.2    39  VAL39      -0.2867
     71  CB        22.7660  106.1090   60.4200 C.3    39  VAL39       0.0252
     72  CG1       21.7410  105.0010   60.3050 C.3    39  VAL39       0.0019
     73  CG2       23.7760  105.7900   61.5020 C.3    39  VAL39       0.0019
     74  N         23.3310  105.7350   54.0300 N.3    42  ARG42      -0.1245
     75  CA        23.4920  104.3940   53.4870 C.3    42  ARG42       0.1563
     76  C         22.3340  104.0040   52.5830 C.2    42  ARG42       0.2260
     77  O         21.1710  104.1770   52.9400 O.2    42  ARG42      -0.2867
     78  CB        23.7670  103.3790   54.6210 C.3    42  ARG42       0.0307
     79  CG        25.0640  103.7660   55.3670 C.3    42  ARG42       0.0489
     80  CD        25.6340  102.7830   56.3600 C.3    42  ARG42       0.2205
     81  NE        24.8690  102.7670   57.5860 N.pl3  42  ARG42      -0.0865
     82  CZ        25.3730  102.7420   58.8130 C.cat  42  ARG42       0.5346
     83  NH1       26.6750  102.7230   59.0490 N.pl3  42  ARG42       0.1354
     84  NH2       24.5340  102.7310   59.8230 N.pl3  42  ARG42       0.1354
     85  N         20.8320  100.9430   50.6890 N.3    44  ARG44      -0.1245
     86  CA        21.0550   99.5210   50.7010 C.3    44  ARG44       0.1563
     87  C         19.9130   98.7560   50.0620 C.2    44  ARG44       0.2260
     88  O         19.7460   98.7840   48.8430 O.2    44  ARG44      -0.2867
     89  CB        21.3380   99.0390   52.1360 C.3    44  ARG44       0.0307
     90  CG        22.5760   99.6690   52.8130 C.3    44  ARG44       0.0489
     91  CD        23.1940   98.7210   53.8090 C.3    44  ARG44       0.2205
     92  NE        24.3000   99.3000   54.5660 N.pl3  44  ARG44      -0.0865
     93  CZ        24.5870   98.9670   55.8280 C.cat  44  ARG44       0.5346
     94  NH1       23.8480   98.0630   56.4730 N.pl3  44  ARG44       0.1354
     95  NH2       25.6090   99.5400   56.4570 N.pl3  44  ARG44       0.1354
     96  N         15.5560  101.1720   52.2230 N.3   102  GLN102     -0.1245
     97  CA        16.0150  100.9940   53.5970 C.3   102  GLN102      0.1566
     98  C         16.2720  102.3290   54.2660 C.2   102  GLN102      0.2260
     99  O         16.0350  102.4650   55.4610 O.2   102  GLN102     -0.2867
    100  CB        17.2710  100.1240   53.6560 C.3   102  GLN102      0.0367
    101  CG        17.8150   99.9140   55.0670 C.3   102  GLN102      0.0905
    102  CD        18.9990   98.9730   55.1000 C.2   102  GLN102      0.2608
    103  OE1       19.0700   98.0230   54.3110 O.2   102  GLN102     -0.2717
    104  NE2       19.9500   99.2440   55.9820 N.am  102  GLN102     -0.0878
    105  N         28.6180  107.4480   70.2010 N.3   124  ALA124     -0.1245
    106  CA        28.9400  106.6840   71.4000 C.3   124  ALA124      0.1562
    107  C         30.2090  105.9560   70.9890 C.2   124  ALA124      0.2260
    108  O         30.1640  105.0000   70.2090 O.2   124  ALA124     -0.2867
    109  CB        27.8190  105.6830   71.7260 C.3   124  ALA124      0.0290
    110  N         32.3860  101.5270   72.4700 N.3   127  VAL127     -0.1245
    111  CA        31.4000  100.7910   73.2640 C.3   127  VAL127      0.1561
    112  C         31.9860   99.4580   73.7520 C.2   127  VAL127      0.2260
    113  O         32.6150   98.7290   72.9770 O.2   127  VAL127     -0.2867
    114  CB        30.1020  100.5050   72.4630 C.3   127  VAL127      0.0252
    115  CG1       29.2820   99.4150   73.1730 C.3   127  VAL127      0.0019
    116  CG2       29.2550  101.7770   72.3420 C.3   127  VAL127      0.0019
    117  N         22.7460   94.9600   68.0470 N.3   158  CYS158     -0.1221
    118  CA        22.1600   95.2750   66.7440 C.3   158  CYS158      0.1808
    119  C         23.1420   96.1460   65.9580 C.2   158  CYS158      0.2601
    120  O         22.7520   97.0410   65.1720 O.2   158  CYS158     -0.2717
    121  CB        20.8310   96.0150   66.9370 C.3   158  CYS158      0.0970
    122  SG        19.5560   95.0660   67.7900 S.3   158  CYS158     -0.0800
    123  N         24.4190   95.8430   66.1610 N.am  159  ASP159     -0.1959
    124  CA        25.5150   96.5790   65.5420 C.3   159  ASP159      0.1840
    125  C         26.1170   96.1190   64.2040 C.2   159  ASP159      0.2623
    126  O         27.2150   96.5420   63.8290 O.2   159  ASP159     -0.2715
    127  CB        26.6150   96.9130   66.5700 C.3   159  ASP159      0.1450
    128  CG        27.0110   95.7440   67.4580 C.2   159  ASP159      0.3671
    129  OD1       26.3560   94.6900   67.4530 O.co2 159  ASP159     -0.2456
    130  OD2       27.9900   95.9080   68.2130 O.co2 159  ASP159     -0.2456
    131  N         25.3970   95.2820   63.4710 N.am  160  GLY160     -0.1940
    132  CA        25.8850   94.8670   62.1640 C.3   160  GLY160      0.2014
    133  C         27.0690   93.9350   62.1520 C.2   160  GLY160      0.2639
    134  O         27.5840   93.5420   63.2000 O.2   160  GLY160     -0.2714
    135  N         27.5270   93.6020   60.9530 N.am  161  PHE161     -0.1959
    136  CA        28.6300   92.6660   60.7950 C.3   161  PHE161      0.1771
    137  C         29.9070   93.0260   61.5140 C.2   161  PHE161      0.2620
    138  O         30.5680   92.1500   62.0720 O.2   161  PHE161     -0.2715
    139  CB        28.9470   92.4170   59.3290 C.3   161  PHE161      0.0574
    140  CG        29.8330   91.2200   59.1060 C.ar  161  PHE161     -0.0200
    141  CD1       29.4040   89.9480   59.4740 C.ar  161  PHE161     -0.0042
    142  CD2       31.1000   91.3640   58.5480 C.ar  161  PHE161     -0.0042
    143  CE1       30.2230   88.8400   59.2950 C.ar  161  PHE161     -0.0003
    144  CE2       31.9320   90.2570   58.3630 C.ar  161  PHE161     -0.0003
    145  CZ        31.4890   88.9880   58.7410 C.ar  161  PHE161     -0.0000
    146  N         30.2720   94.3030   61.4890 N.am  162  HIS162     -0.1959
    147  CA        31.5000   94.7440   62.1400 C.3   162  HIS162      0.1787
    148  C         31.3270   95.2840   63.5570 C.2   162  HIS162      0.2621
    149  O         32.2300   95.9380   64.0820 O.2   162  HIS162     -0.2715
    150  CB        32.2080   95.7660   61.2550 C.3   162  HIS162      0.0785
    151  CG        32.8670   95.1580   60.0600 C.ar  162  HIS162      0.0821
    152  ND1       32.3320   95.2480   58.7900 N.ar  162  HIS162     -0.2267
    153  CD2       33.9890   94.4040   59.9500 C.ar  162  HIS162      0.1154
    154  CE1       33.0960   94.5690   57.9510 C.ar  162  HIS162      0.1986
    155  NE2       34.1060   94.0490   58.6300 N.ar  162  HIS162     -0.2212
    156  N         30.1830   94.9870   64.1720 N.am  163  GLY163     -0.1940
    157  CA        29.9120   95.4630   65.5130 C.3   163  GLY163      0.2014
    158  C         30.7490   94.8360   66.6010 C.2   163  GLY163      0.2638
    159  O         31.4210   93.8340   66.3950 O.2   163  GLY163     -0.2714
    160  N         30.6580   95.4020   67.7890 N.am  164  ILE164     -0.1977
    161  CA        31.3990   94.9250   68.9270 C.3   164  ILE164      0.1596
    162  C         30.7400   93.7440   69.6490 C.2   164  ILE164      0.2287
    163  O         31.4240   92.9180   70.2470 O.2   164  ILE164     -0.2864
    164  CB        31.5950   96.0870   69.9610 C.3   164  ILE164      0.0276
    165  CG1       32.4500   95.6160   71.1510 C.3   164  ILE164      0.0022
    166  CG2       30.2300   96.5950   70.4970 C.3   164  ILE164      0.0022
    167  CD1       33.7850   94.9940   70.7510 C.3   164  ILE164      0.0001
    168  N         21.2070   90.2950   66.7910 N.3   284  ALA284     -0.1231
    169  CA        20.0980   90.4590   65.8540 C.3   284  ALA284      0.1694
    170  C         20.5900   91.0820   64.5530 C.2   284  ALA284      0.2593
    171  O         21.4700   91.9420   64.5580 O.2   284  ALA284     -0.2718
    172  CB        18.9950   91.3300   66.4660 C.3   284  ALA284      0.0304
    173  N         20.0230   90.6460   63.4350 N.am  285  GLY285     -0.1942
    174  CA        20.4170   91.1850   62.1460 C.3   285  GLY285      0.2014
    175  C         21.8090   90.8010   61.7100 C.2   285  GLY285      0.2638
    176  O         22.2690   89.7060   62.0410 O.2   285  GLY285     -0.2714
    177  N         22.4880   91.7270   61.0250 N.am  286  ASP286     -0.1971
    178  CA        23.8360   91.5160   60.4920 C.3   286  ASP286      0.1709
    179  C         24.8640   91.1790   61.5270 C.2   286  ASP286      0.2293
    180  O         25.9510   90.7390   61.1870 O.2   286  ASP286     -0.2864
    181  CB        24.3190   92.7240   59.7100 C.3   286  ASP286      0.1436
    182  CG        23.7130   92.8160   58.3230 C.2   286  ASP286      0.3671
    183  OD1       22.7140   92.1260   58.0720 O.co2 286  ASP286     -0.2456
    184  OD2       24.2440   93.5850   57.4720 O.co2 286  ASP286     -0.2456
    185  N         18.3480   89.9820   53.7520 N.3   298  GLY298     -0.1210
    186  CA        19.0520   90.6280   54.8590 C.3   298  GLY298      0.1956
    187  C         18.2820   91.4530   55.8800 C.2   298  GLY298      0.2611
    188  O         18.3190   91.1770   57.0830 O.2   298  GLY298     -0.2717
    189  N         17.6290   92.4980   55.3900 N.am  299  LEU299     -0.1979
    190  CA        16.8340   93.4020   56.1980 C.3   299  LEU299      0.1596
    191  C         15.6180   92.6280   56.6570 C.2   299  LEU299      0.2287
    192  O         15.0430   92.9040   57.7090 O.2   299  LEU299     -0.2864
    193  CB        16.3770   94.6020   55.3500 C.3   299  LEU299      0.0297
    194  CG        15.6080   95.7150   56.0820 C.3   299  LEU299      0.0022
    195  CD1       16.5570   96.4540   56.9960 C.3   299  LEU299      0.0001
    196  CD2       14.9360   96.6700   55.1130 C.3   299  LEU299      0.0001
    197  N         16.5720   90.5190   59.6220 N.3   302  ALA302     -0.1245
    198  CA        16.7770   91.4080   60.7540 C.3   302  ALA302      0.1562
    199  C         15.4370   91.6660   61.4220 C.2   302  ALA302      0.2260
    200  O         15.3330   91.6470   62.6460 O.2   302  ALA302     -0.2867
    201  CB        17.3900   92.7040   60.3040 C.3   302  ALA302      0.0290
@<TRIPOS>BOND
     1    88    87    2
     2    87    86    1
     3    85    86    1
     4    86    89    1
     5    89    90    1
     6    96    97    1
     7    76    77    2
     8    76    75    1
     9    90    91    1
    10    75    74    1
    11    75    78    1
    12    97   100    1
    13    97    98    1
    14   100   101    1
    15   185   186    1
    16    91    92    1
    17    98    99    2
    18   103   102    2
    19    92    93    2
    20    78    79    1
    21   186   187    1
    22   101   102    1
    23   102   104   am
    24   196   194    1
    25   193   194    1
    26   193   190    1
    27    79    80    1
    28   189   187   am
    29   189   190    1
    30    93    95    1
    31    93    94    1
    32   187   188    2
    33   194   195    1
    34   190   191    1
    35    80    81    1
    36   191   192    2
    37    70    69    2
    38   184   182   ar
    39    81    82    2
    40    69    68    1
    41   154   155   ar
    42   154   152   ar
    43   183   182   ar
    44   182   181    1
    45   144   142   ar
    46   144   145   ar
    47   142   140   ar
    48   155   153   ar
    49   145   143   ar
    50   152   151   ar
    51    82    83    1
    52    82    84    1
    53    22    23    1
    54    22    21    1
    55    68    67    1
    56    68    71    1
    57   140   139    1
    58   140   141   ar
    59   143   141   ar
    60   139   136    1
    61   197   198    1
    62    23    17    1
    63   181   178    1
    64    21    18    1
    65   153   151   ar
    66   151   150    1
    67   201   198    1
    68    72    71    1
    69    71    73    1
    70   178   177    1
    71   178   179    1
    72   198   199    1
    73   136   135    1
    74   136   137    1
    75   135   133   am
    76   177   175   am
    77    17    18    1
    78    17    15   am
    79    18    19    1
    80   180   179    2
    81   150   147    1
    82    66    64   am
    83   199   200    2
    84   146   137   am
    85   146   147    1
    86   137   138    2
    87   175   176    2
    88   175   174    1
    89    64    65    2
    90    64    63    1
    91    14    15    1
    92    14    13    1
    93    63    62    1
    94    15    16    2
    95   147   148    1
    96   174   173    1
    97   133   132    1
    98   133   134    2
    99   132   131    1
   100    19    24   am
   101    19    20    2
   102    24    25    1
   103    62    59    1
   104    29    28    1
   105   173   170   am
   106   131   125   am
   107   148   149    2
   108   148   156   am
   109    25    28    1
   110    25    26    1
   111   126   125    2
   112    59    60    1
   113    59    58    1
   114   156   157    1
   115   125   124    1
   116    46    44   ar
   117    60    61    2
   118   170   171    2
   119   170   169    1
   120    45    44   ar
   121    44    43    1
   122    58    49   am
   123    53    54    1
   124    53    52    1
   125    26    27    2
   126   120   119    2
   127   157   158    1
   128   124   123    1
   129   124   127    1
   130    43    42    1
   131    54    55    2
   132   169   172    1
   133   169   168    1
   134    49    50    2
   135    49    48    1
   136   119   123   am
   137   119   118    1
   138    52    51    1
   139    51    48    1
   140   159   158    2
   141    55    56    1
   142    55    57    1
   143   127   128    1
   144    11    12    2
   145    11    10    1
   146   158   160   am
   147   118   121    1
   148   118   117    1
   149    48    47    1
   150   121   122    1
   151    10     9    1
   152    42    39    1
   153    47    40   am
   154   129   128   ar
   155   128   130   ar
   156    40    39    1
   157    40    41    2
   158   160   161    1
   159    39    38    1
   160     4     3    2
   161     9     3   am
   162   161   162    1
   163   161   164    1
   164     3     2    1
   165    38    32   am
   166    33    32    2
   167   162   163    2
   168   164   166    1
   169   164   165    1
   170    32    31    1
   171     7     5    1
   172   105   106    1
   173   108   107    2
   174     2     5    1
   175     2     1    1
   176     5     6    1
   177   167   165    1
   178   107   106    1
   179   106   109    1
   180    31    30    1
   181    31    34    1
   182     6     8    1
   183    34    35    1
   184   116   114    1
   185   114   115    1
   186   114   111    1
   187   110   111    1
   188   113   112    2
   189   111   112    1
   190    35    37    1
   191    35    36    1
