@<TRIPOS>MOLECULE
tmp/1dogA01.pdb
 149 148 0 0 0
SMALL
GASTEIGER

@<TRIPOS>ATOM
      1  N         26.0530   24.2570   14.4640 N.3    39  ALA39      -0.1245
      2  CA        27.3690   24.5030   13.8490 C.3    39  ALA39       0.1562
      3  C         27.4440   25.8750   13.2400 C.2    39  ALA39       0.2260
      4  O         28.5080   26.5430   13.3370 O.2    39  ALA39      -0.2867
      5  CB        27.7320   23.4060   12.8820 C.3    39  ALA39       0.0290
      6  N         24.6330   24.0610    7.1290 N.3    48  TYR48      -0.1241
      7  CA        25.2820   23.6920    8.3950 C.3    48  TYR48       0.1605
      8  C         24.3170   23.7610    9.5640 C.2    48  TYR48       0.2264
      9  O         24.7730   23.7360   10.7290 O.2    48  TYR48      -0.2867
     10  CB        26.5020   24.6060    8.6040 C.3    48  TYR48       0.0534
     11  CG        27.7750   24.2470    7.9280 C.ar   48  TYR48      -0.0201
     12  CD1       27.8580   23.6280    6.6730 C.ar   48  TYR48      -0.0009
     13  CD2       28.9840   24.5230    8.5750 C.ar   48  TYR48      -0.0009
     14  CE1       29.0590   23.2910    6.0910 C.ar   48  TYR48       0.0417
     15  CE2       30.2180   24.2160    7.9850 C.ar   48  TYR48       0.0417
     16  CZ        30.2510   23.6040    6.7520 C.ar   48  TYR48       0.1957
     17  OH        31.4660   23.3410    6.1880 O.3    48  TYR48      -0.2866
     18  N         26.5410   19.0370   15.5130 N.3    52  TRP52      -0.1241
     19  CA        27.5560   17.9740   15.3930 C.3    52  TRP52       0.1605
     20  C         28.0460   17.6340   16.8040 C.2    52  TRP52       0.2264
     21  O         28.1950   18.5790   17.6230 O.2    52  TRP52      -0.2867
     22  CB        28.7090   18.4560   14.5790 C.3    52  TRP52       0.0550
     23  CG        28.7010   18.2030   13.1310 C.ar   52  TRP52       0.0003
     24  CD1       29.3360   17.1950   12.4600 C.ar   52  TRP52       0.0946
     25  CD2       28.0240   18.9850   12.1230 C.ar   52  TRP52       0.0152
     26  NE1       29.1180   17.3210   11.1050 N.ar   52  TRP52      -0.2442
     27  CE2       28.3420   18.4270   10.8820 C.ar   52  TRP52       0.0810
     28  CE3       27.2190   20.1170   12.1910 C.ar   52  TRP52       0.0012
     29  CZ2       27.8520   18.9410    9.6860 C.ar   52  TRP52       0.0191
     30  CZ3       26.7420   20.6330   11.0000 C.ar   52  TRP52       0.0001
     31  CH2       27.0270   20.0530    9.7690 C.ar   52  TRP52       0.0015
     32  N         31.0430   16.7440   17.6970 N.3    54  ARG54      -0.1182
     33  CA        32.3800   17.3560   17.7680 C.3    54  ARG54       0.1910
     34  C         32.2870   18.8480   18.0700 C.2    54  ARG54       0.2634
     35  O         32.7930   19.3060   19.1090 O.2    54  ARG54      -0.2714
     36  CB        33.2040   17.1030   16.4970 C.2    54  ARG54       0.0007
     37  CG        34.4490   17.9230   16.2760 C.2    54  ARG54       0.0176
     38  CD        35.2380   17.5980   15.0710 C.3    54  ARG54       0.2464
     39  NE        34.4000   17.4870   13.8620 N.pl3  54  ARG54      -0.0815
     40  CZ        33.8980   16.3760   13.3380 C.cat  54  ARG54       0.5349
     41  NH1       34.1960   15.1660   13.8140 N.pl3  54  ARG54       0.1354
     42  NH2       32.9640   16.4480   12.4100 N.pl3  54  ARG54       0.1354
     43  N         31.6820   19.6410   17.2030 N.am   55  ASP55      -0.1971
     44  CA        31.5950   21.1040   17.3860 C.3    55  ASP55       0.1709
     45  C         31.0110   21.4050   18.7580 C.2    55  ASP55       0.2293
     46  O         31.5650   22.2310   19.5000 O.2    55  ASP55      -0.2864
     47  CB        30.8470   21.8010   16.2840 C.3    55  ASP55       0.1436
     48  CG        31.3040   21.5320   14.8770 C.2    55  ASP55       0.3671
     49  OD1       31.6100   20.3690   14.5310 O.co2  55  ASP55      -0.2456
     50  OD2       31.3360   22.4620   14.0380 O.co2  55  ASP55      -0.2456
     51  N         37.9990   13.9660   11.4820 N.3   176  LEU176     -0.1231
     52  CA        37.2470   15.1510   11.8890 C.3   176  LEU176      0.1693
     53  C         36.8030   15.9310   10.6800 C.2   176  LEU176      0.2592
     54  O         35.8910   16.7580   10.8190 O.2   176  LEU176     -0.2718
     55  CB        38.1110   15.9330   12.8910 C.3   176  LEU176      0.0284
     56  CG        39.1360   16.9080   12.3300 C.3   176  LEU176      0.0019
     57  CD1       39.6480   17.7950   13.4470 C.3   176  LEU176      0.0001
     58  CD2       40.3250   16.1540   11.7140 C.3   176  LEU176      0.0001
     59  N         37.4290   15.7940    9.5390 N.am  177  TRP177     -0.1962
     60  CA        36.9990   16.6030    8.3500 C.3   177  TRP177      0.1771
     61  C         35.9450   15.8210    7.5690 C.2   177  TRP177      0.2622
     62  O         35.5110   16.1840    6.4670 O.2   177  TRP177     -0.2715
     63  CB        38.1690   17.0470    7.5240 C.3   177  TRP177      0.0590
     64  CG        39.3280   17.7070    8.1500 C.ar  177  TRP177      0.0006
     65  CD1       40.6550   17.4090    7.9230 C.ar  177  TRP177      0.0946
     66  CD2       39.3330   18.8590    9.0260 C.ar  177  TRP177      0.0152
     67  NE1       41.4480   18.2750    8.6180 N.ar  177  TRP177     -0.2442
     68  CE2       40.6940   19.1750    9.3050 C.ar  177  TRP177      0.0810
     69  CE3       38.3280   19.6380    9.6040 C.ar  177  TRP177      0.0012
     70  CZ2       41.0370   20.2200   10.1390 C.ar  177  TRP177      0.0191
     71  CZ3       38.6710   20.6740   10.4420 C.ar  177  TRP177      0.0001
     72  CH2       39.9980   20.9860   10.7050 C.ar  177  TRP177      0.0015
     73  N         35.5790   14.6670    8.1110 N.am  178  GLU178     -0.1932
     74  CA        34.5290   13.7910    7.5700 C.3   178  GLU178      0.1818
     75  C         34.7490   13.3130    6.1540 C.2   178  GLU178      0.2332
     76  O         33.7900   13.1220    5.3730 O.2   178  GLU178     -0.2860
     77  CB        33.1960   14.5810    7.6230 C.2   178  GLU178      0.0097
     78  CG        32.9340   15.5240    8.8040 C.2   178  GLU178      0.0837
     79  CD        31.5660   16.1340    8.8360 C.2   178  GLU178      0.3877
     80  OE1       31.2630   17.1080    8.1820 O.co2 178  GLU178     -0.2406
     81  OE2       30.7360   15.5100    9.5320 O.co2 178  GLU178     -0.2406
     82  N         43.3550   23.4380    6.1200 N.3   304  ARG304     -0.1245
     83  CA        43.2690   22.1120    6.7600 C.3   304  ARG304      0.1563
     84  C         44.4230   21.2130    6.3480 C.2   304  ARG304      0.2260
     85  O         45.1350   20.7460    7.2640 O.2   304  ARG304     -0.2867
     86  CB        41.9320   21.4310    6.5000 C.3   304  ARG304      0.0307
     87  CG        40.7070   22.3020    6.8540 C.3   304  ARG304      0.0489
     88  CD        39.4540   21.4960    6.7430 C.3   304  ARG304      0.2205
     89  NE        39.0950   21.2200    5.3720 N.pl3 304  ARG304     -0.0865
     90  CZ        38.0660   20.4970    4.9690 C.cat 304  ARG304      0.5346
     91  NH1       37.1840   19.9640    5.8320 N.pl3 304  ARG304      0.1354
     92  NH2       37.9570   20.2600    3.6650 N.pl3 304  ARG304      0.1354
     93  N         37.9370   21.6730   -0.8900 N.3   310  TYR310     -0.1241
     94  CA        36.6420   22.1250   -0.3730 C.3   310  TYR310      0.1605
     95  C         36.6040   23.6370   -0.5700 C.2   310  TYR310      0.2264
     96  O         37.4700   24.3820   -0.0910 O.2   310  TYR310     -0.2867
     97  CB        36.3700   21.6510    1.0310 C.3   310  TYR310      0.0534
     98  CG        35.0260   21.9580    1.6390 C.ar  310  TYR310     -0.0201
     99  CD1       33.8200   21.5580    1.0730 C.ar  310  TYR310     -0.0009
    100  CD2       34.9670   22.6360    2.8680 C.ar  310  TYR310     -0.0009
    101  CE1       32.5890   21.8200    1.6850 C.ar  310  TYR310      0.0417
    102  CE2       33.7630   22.9340    3.4910 C.ar  310  TYR310      0.0417
    103  CZ        32.5760   22.5100    2.9000 C.ar  310  TYR310      0.1957
    104  OH        31.4120   22.7940    3.5530 O.3   310  TYR310     -0.2866
    105  N         41.5090   28.4580    6.9010 N.3   316  TRP316     -0.1241
    106  CA        40.3400   28.3820    7.7950 C.3   316  TRP316      0.1605
    107  C         40.6880   29.1790    9.0540 C.2   316  TRP316      0.2264
    108  O         41.8300   28.9280    9.5500 O.2   316  TRP316     -0.2867
    109  CB        40.0330   26.9430    8.1950 C.3   316  TRP316      0.0550
    110  CG        39.2750   26.0810    7.2710 C.ar  316  TRP316      0.0003
    111  CD1       39.4420   25.9810    5.9060 C.ar  316  TRP316      0.0946
    112  CD2       38.2370   25.1380    7.5910 C.ar  316  TRP316      0.0152
    113  NE1       38.5720   25.0770    5.3710 N.ar  316  TRP316     -0.2442
    114  CE2       37.8240   24.5350    6.3830 C.ar  316  TRP316      0.0810
    115  CE3       37.6410   24.7510    8.7910 C.ar  316  TRP316      0.0012
    116  CZ2       36.8250   23.5710    6.3110 C.ar  316  TRP316      0.0191
    117  CZ3       36.6600   23.7910    8.7440 C.ar  316  TRP316      0.0001
    118  CH2       36.2670   23.2070    7.5240 C.ar  316  TRP316      0.0015
    119  N         33.7910   30.2260    8.2790 N.3   399  GLU399     -0.1245
    120  CA        34.5400   28.9730    8.2910 C.3   399  GLU399      0.1567
    121  C         35.8920   29.2170    7.5720 C.2   399  GLU399      0.2260
    122  O         36.9610   28.9900    8.1600 O.2   399  GLU399     -0.2867
    123  CB        33.8560   27.8100    7.6340 C.3   399  GLU399      0.0388
    124  CG        34.6100   26.4670    7.6180 C.3   399  GLU399      0.1160
    125  CD        33.8280   25.4140    6.8680 C.2   399  GLU399      0.3649
    126  OE1       33.9010   25.5350    5.6220 O.co2 399  GLU399     -0.2457
    127  OE2       33.2150   24.5660    7.4730 O.co2 399  GLU399     -0.2457
    128  N         30.5490   30.5940   12.1100 N.3   414  LEU414     -0.1245
    129  CA        30.7670   29.2020   12.5130 C.3   414  LEU414      0.1561
    130  C         31.1450   29.1860   13.9820 C.2   414  LEU414      0.2260
    131  O         32.1600   29.7370   14.3760 O.2   414  LEU414     -0.2867
    132  CB        31.7710   28.5460   11.5770 C.3   414  LEU414      0.0270
    133  CG        31.9820   27.0580   11.8250 C.3   414  LEU414      0.0019
    134  CD1       31.0020   26.2870   10.9650 C.3   414  LEU414      0.0001
    135  CD2       33.4400   26.7420   11.4690 C.3   414  LEU414      0.0001
    136  N         32.3880   27.0400   15.8430 N.3   416  TRP416     -0.1241
    137  CA        33.7370   26.5060   16.0800 C.3   416  TRP416      0.1605
    138  C         34.7720   27.6310   15.9210 C.2   416  TRP416      0.2264
    139  O         35.6810   27.7040   16.7710 O.2   416  TRP416     -0.2867
    140  CB        34.0070   25.2270   15.2910 C.3   416  TRP416      0.0550
    141  CG        35.2290   24.4450   15.6260 C.ar  416  TRP416      0.0003
    142  CD1       36.1670   24.6700   16.6140 C.ar  416  TRP416      0.0946
    143  CD2       35.6240   23.2160   14.9960 C.ar  416  TRP416      0.0152
    144  NE1       37.1270   23.6970   16.6140 N.ar  416  TRP416     -0.2442
    145  CE2       36.8290   22.7940   15.6250 C.ar  416  TRP416      0.0810
    146  CE3       35.0920   22.4480   13.9770 C.ar  416  TRP416      0.0012
    147  CZ2       37.4900   21.6350   15.2470 C.ar  416  TRP416      0.0191
    148  CZ3       35.7600   21.3080   13.5710 C.ar  416  TRP416      0.0001
    149  CH2       36.9400   20.8880   14.2030 C.ar  416  TRP416      0.0015
@<TRIPOS>BOND
     1    93    94    1
     2    95    94    1
     3    95    96    2
     4    94    97    1
     5    97    98    1
     6    99    98   ar
     7    99   101   ar
     8    98   100   ar
     9   101   103   ar
    10   100   102   ar
    11   103   102   ar
    12   103   104    1
    13    92    90    1
    14    90    89    2
    15    90    91    1
    16   113   111   ar
    17   113   114   ar
    18    89    88    1
    19    76    75    2
    20   126   125   ar
    21   111   110   ar
    22    14    12   ar
    23    14    16   ar
    24    82    83    1
    25    75    74    1
    26    17    16    1
    27   116   114   ar
    28   116   118   ar
    29    84    83    1
    30    84    85    2
    31   114   112   ar
    32    62    61    2
    33    86    83    1
    34    86    87    1
    35    12    11   ar
    36    88    87    1
    37    16    15   ar
    38   125   127   ar
    39   125   124    1
    40   105   106    1
    41     6     7    1
    42   110   112   ar
    43   110   109    1
    44    63    64    1
    45    63    60    1
    46   118   117   ar
    47    61    73   am
    48    61    60    1
    49    74    77    1
    50    74    73    1
    51   121   122    2
    52   121   120    1
    53   112   115   ar
    54   124   123    1
    55    77    78    2
    56   123   120    1
    57   106   109    1
    58   106   107    1
    59    65    64   ar
    60    65    67   ar
    61    11    13   ar
    62    11    10    1
    63    15    13   ar
    64    64    66   ar
    65    80    79   ar
    66   119   120    1
    67    60    59    1
    68     7    10    1
    69     7     8    1
    70    67    68   ar
    71   117   115   ar
    72    78    79    1
    73    79    81   ar
    74    66    68   ar
    75    66    69   ar
    76   107   108    2
    77    68    70   ar
    78    59    53   am
    79     8     9    2
    80    69    71   ar
    81    29    31   ar
    82    29    27   ar
    83    31    30   ar
    84    70    72   ar
    85    71    72   ar
    86    53    54    2
    87    53    52    1
    88    27    26   ar
    89    27    25   ar
    90   134   133    1
    91    30    28   ar
    92    26    24   ar
    93   135   133    1
    94    51    52    1
    95   132   133    1
    96   132   129    1
    97    58    56    1
    98    52    55    1
    99   128   129    1
   100    25    28   ar
   101    25    23   ar
   102    56    55    1
   103    56    57    1
   104    42    40    1
   105    24    23   ar
   106   129   130    1
   107     5     2    1
   108    23    22    1
   109     3     4    2
   110     3     2    1
   111    40    41    1
   112    40    39    2
   113   148   146   ar
   114   148   149   ar
   115     2     1    1
   116    39    38    1
   117   146   143   ar
   118   130   131    2
   119    50    48   ar
   120   149   147   ar
   121    49    48   ar
   122    22    19    1
   123    48    47    1
   124   143   145   ar
   125   143   141   ar
   126    38    37    1
   127   147   145   ar
   128   140   141    1
   129   140   137    1
   130    19    18    1
   131    19    20    1
   132   145   144   ar
   133   141   142   ar
   134   136   137    1
   135   138   137    1
   136   138   139    2
   137    37    36    2
   138    47    44    1
   139    36    33    1
   140   142   144   ar
   141    20    21    2
   142    43    44    1
   143    43    34   am
   144    44    45    1
   145    32    33    1
   146    33    34    1
   147    34    35    2
   148    45    46    2
