@<TRIPOS>MOLECULE
tmp/1dohB01.pdb
 130 127 0 0 0
SMALL
GASTEIGER

@<TRIPOS>ATOM
      1  N        106.1130   37.9280   18.8360 N.3   106  VAL106     -0.1245
      2  CA       106.2070   38.9980   19.8120 C.3   106  VAL106      0.1561
      3  C        107.2500   38.6880   20.8770 C.2   106  VAL106      0.2260
      4  O        107.6570   37.5380   21.0320 O.2   106  VAL106     -0.2867
      5  CB       104.8250   39.2920   20.4230 C.3   106  VAL106      0.0252
      6  CG1      104.5650   38.4450   21.6440 C.3   106  VAL106      0.0019
      7  CG2      104.6660   40.7580   20.6660 C.3   106  VAL106      0.0019
      8  N        103.4500   48.0110   13.2060 N.3   152  SER152     -0.1202
      9  CA       102.8130   48.0150   14.5090 C.3   152  SER152      0.2020
     10  C        102.8760   49.3940   15.1050 C.2   152  SER152      0.2619
     11  O        103.7210   50.1960   14.7230 O.2   152  SER152     -0.2717
     12  CB       103.5360   47.0600   15.4480 C.3   152  SER152      0.2103
     13  OG       103.0820   47.1840   16.7870 O.3   152  SER152     -0.2182
     14  N        101.9810   49.6630   16.0470 N.am  153  ILE153     -0.1965
     15  CA       101.9680   50.9400   16.7450 C.3   153  ILE153      0.1727
     16  C        103.2910   51.1010   17.5440 C.2   153  ILE153      0.2616
     17  O        103.7410   52.2220   17.8000 O.2   153  ILE153     -0.2715
     18  CB       100.7460   51.0330   17.7130 C.3   153  ILE153      0.0290
     19  CG1      100.6640   52.4310   18.3490 C.3   153  ILE153      0.0022
     20  CG2      100.8470   49.9520   18.7720 C.3   153  ILE153      0.0023
     21  CD1       99.3070   52.7960   18.9530 C.3   153  ILE153      0.0001
     22  N        103.9180   49.9730   17.8920 N.am  154  THR154     -0.1951
     23  CA       105.1670   49.9550   18.6580 C.3   154  THR154      0.1897
     24  C        106.3800   50.5990   17.9600 C.2   154  THR154      0.2313
     25  O        107.3360   50.9810   18.6250 O.2   154  THR154     -0.2863
     26  CB       105.5280   48.5190   19.1170 C.3   154  THR154      0.1794
     27  OG1      105.6030   47.6520   17.9830 O.3   154  THR154     -0.2208
     28  CG2      104.4950   48.0050   20.0790 C.3   154  THR154      0.0378
     29  N        111.1750   43.8440   19.9740 N.3   166  TYR166     -0.1241
     30  CA       110.0030   43.7840   19.1020 C.3   166  TYR166      0.1605
     31  C        109.7180   45.1280   18.4210 C.2   166  TYR166      0.2264
     32  O        109.5440   45.1990   17.1880 O.2   166  TYR166     -0.2867
     33  CB       108.7700   43.3230   19.8960 C.3   166  TYR166      0.0534
     34  CG       107.4900   43.2760   19.0870 C.ar  166  TYR166     -0.0201
     35  CD1      107.2660   42.2590   18.1530 C.ar  166  TYR166     -0.0009
     36  CD2      106.5080   44.2590   19.2420 C.ar  166  TYR166     -0.0009
     37  CE1      106.0950   42.2230   17.3970 C.ar  166  TYR166      0.0417
     38  CE2      105.3330   44.2290   18.4870 C.ar  166  TYR166      0.0417
     39  CZ       105.1340   43.2110   17.5700 C.ar  166  TYR166      0.1957
     40  OH       103.9760   43.1720   16.8340 O.3   166  TYR166     -0.2866
     41  N         98.8690   48.4250   12.9300 N.3   196  PRO196     -0.2102
     42  CA        97.7390   48.2660   13.8490 C.3   196  PRO196      0.1504
     43  C         98.0380   48.4860   15.3110 C.2   196  PRO196      0.2576
     44  O         99.1890   48.4180   15.7320 O.2   196  PRO196     -0.2718
     45  CB        97.3000   46.8190   13.6090 C.3   196  PRO196      0.0282
     46  CG        98.5230   46.1440   13.0830 C.3   196  PRO196      0.0208
     47  CD        99.1660   47.1680   12.2160 C.3   196  PRO196      0.0893
     48  N         96.9940   48.8100   16.0730 N.am  197  GLY197     -0.1943
     49  CA        97.1420   48.9440   17.5140 C.3   197  GLY197      0.2014
     50  C         96.8310   47.5360   18.0070 C.2   197  GLY197      0.2639
     51  O         96.8900   46.5970   17.2070 O.2   197  GLY197     -0.2714
     52  N         96.5100   47.3580   19.2860 N.am  198  GLY198     -0.1939
     53  CA        96.1540   46.0250   19.7650 C.3   198  GLY198      0.2014
     54  C         94.9480   45.4490   19.0110 C.2   198  GLY198      0.2638
     55  O         93.9550   46.1450   18.7830 O.2   198  GLY198     -0.2714
     56  N         95.0720   44.2090   18.5470 N.am  199  ILE199     -0.1977
     57  CA        94.0080   43.5110   17.8150 C.3   199  ILE199      0.1596
     58  C         93.8170   42.1570   18.5210 C.2   199  ILE199      0.2287
     59  O         94.8060   41.4890   18.8480 O.2   199  ILE199     -0.2864
     60  CB        94.4140   43.2550   16.3370 C.3   199  ILE199      0.0276
     61  CG1       94.7860   44.5670   15.6280 C.3   199  ILE199      0.0022
     62  CG2       93.3290   42.5080   15.6020 C.3   199  ILE199      0.0022
     63  CD1       93.6800   45.6040   15.5360 C.3   199  ILE199      0.0001
     64  N         98.0510   36.2650   19.7320 N.3   203  MET203     -0.1230
     65  CA        99.1590   37.1140   20.1810 C.3   203  MET203      0.1702
     66  C         98.6600   37.9940   21.2900 C.2   203  MET203      0.2592
     67  O         99.2600   38.0420   22.3680 O.2   203  MET203     -0.2718
     68  CB        99.6990   38.0000   19.0510 C.3   203  MET203      0.0401
     69  CG       101.0050   38.7420   19.4500 C.3   203  MET203      0.0596
     70  SD       101.7750   39.6640   18.1300 S.3   203  MET203     -0.1393
     71  CE       102.4780   38.3860   17.1890 C.3   203  MET203      0.0692
     72  N         97.5230   38.6460   21.0340 N.am  204  TYR204     -0.1976
     73  CA        96.8920   39.5270   22.0110 C.3   204  TYR204      0.1639
     74  C         96.5920   38.7950   23.3230 C.2   204  TYR204      0.2290
     75  O         96.8610   39.2990   24.4210 O.2   204  TYR204     -0.2864
     76  CB        95.6060   40.1280   21.4170 C.3   204  TYR204      0.0560
     77  CG        94.7430   40.9660   22.3660 C.ar  204  TYR204     -0.0198
     78  CD1       94.7570   42.3700   22.3100 C.ar  204  TYR204     -0.0009
     79  CD2       93.8460   40.3530   23.2550 C.ar  204  TYR204     -0.0009
     80  CE1       93.8850   43.1370   23.1040 C.ar  204  TYR204      0.0417
     81  CE2       92.9770   41.1110   24.0600 C.ar  204  TYR204      0.0417
     82  CZ        92.9990   42.4950   23.9740 C.ar  204  TYR204      0.1957
     83  OH        92.1160   43.2240   24.7330 O.3   204  TYR204     -0.2866
     84  N        100.1020   38.2270   25.3890 N.3   207  VAL207     -0.1231
     85  CA       100.8620   39.3310   25.9940 C.3   207  VAL207      0.1692
     86  C        100.1510   40.6580   26.2560 C.2   207  VAL207      0.2592
     87  O        100.7980   41.6410   26.6100 O.2   207  VAL207     -0.2718
     88  CB       102.1480   39.6230   25.1830 C.3   207  VAL207      0.0266
     89  CG1      103.0530   38.4070   25.1590 C.3   207  VAL207      0.0020
     90  CG2      101.7960   40.0260   23.7580 C.3   207  VAL207      0.0020
     91  N         98.8300   40.6890   26.1260 N.am  208  CYS208     -0.1970
     92  CA        98.0800   41.9280   26.3520 C.3   208  CYS208      0.1712
     93  C         98.4150   42.6440   27.6580 C.2   208  CYS208      0.2296
     94  O         98.6210   43.8530   27.6640 O.2   208  CYS208     -0.2864
     95  CB        96.5590   41.6810   26.2600 C.3   208  CYS208      0.0983
     96  SG        95.9150   40.2530   27.2310 S.3   208  CYS208     -0.0798
     97  N        101.3090   45.2480   28.2400 N.3   211  TYR211     -0.1241
     98  CA       101.1260   46.6310   27.8130 C.3   211  TYR211      0.1605
     99  C        100.2820   47.3940   28.8010 C.2   211  TYR211      0.2264
    100  O         99.9420   48.5440   28.5650 O.2   211  TYR211     -0.2867
    101  CB       100.3950   46.6700   26.4840 C.3   211  TYR211      0.0534
    102  CG       101.1430   46.0740   25.3360 C.ar  211  TYR211     -0.0201
    103  CD1      101.0840   44.7090   25.0700 C.ar  211  TYR211     -0.0009
    104  CD2      101.8450   46.8860   24.4530 C.ar  211  TYR211     -0.0009
    105  CE1      101.6870   44.1770   23.9380 C.ar  211  TYR211      0.0417
    106  CE2      102.4530   46.3580   23.3220 C.ar  211  TYR211      0.0417
    107  CZ       102.3640   45.0120   23.0680 C.ar  211  TYR211      0.1957
    108  OH       102.8930   44.5260   21.9020 O.3   211  TYR211     -0.2866
    109  N         92.8990   52.6650   25.0020 N.3   231  TRP231     -0.1241
    110  CA        93.5420   52.8180   23.7100 C.3   231  TRP231      0.1605
    111  C         92.6980   53.3370   22.5690 C.2   231  TRP231      0.2264
    112  O         93.1390   53.2750   21.4190 O.2   231  TRP231     -0.2867
    113  CB        94.2300   51.5140   23.2810 C.3   231  TRP231      0.0550
    114  CG        95.1850   50.9720   24.2920 C.ar  231  TRP231      0.0003
    115  CD1       95.8540   51.6820   25.2470 C.ar  231  TRP231      0.0946
    116  CD2       95.5440   49.5890   24.4900 C.ar  231  TRP231      0.0152
    117  NE1       96.5960   50.8260   26.0380 N.ar  231  TRP231     -0.2442
    118  CE2       96.4260   49.5390   25.5930 C.ar  231  TRP231      0.0810
    119  CE3       95.2070   48.3900   23.8420 C.ar  231  TRP231      0.0012
    120  CZ2       96.9720   48.3340   26.0650 C.ar  231  TRP231      0.0191
    121  CZ3       95.7550   47.1920   24.3140 C.ar  231  TRP231      0.0001
    122  CH2       96.6240   47.1780   25.4150 C.ar  231  TRP231      0.0015
    123  N         99.9490   55.3180   22.4870 N.3   271  MET271     -0.1245
    124  CA       100.7470   54.3670   23.2610 C.3   271  MET271      0.1570
    125  C        102.2360   54.6660   23.2500 C.2   271  MET271      0.2261
    126  O        102.9550   54.0670   24.0640 O.2   271  MET271     -0.2867
    127  CB       100.5210   52.9340   22.7580 C.3   271  MET271      0.0387
    128  CG        99.1000   52.3800   22.9360 C.3   271  MET271      0.0595
    129  SD        99.0180   50.5700   22.7580 S.3   271  MET271     -0.1393
    130  CE        98.6010   50.5020   21.2280 C.3   271  MET271      0.0692
@<TRIPOS>BOND
     1    47    41    1
     2    47    46    1
     3    41    42    1
     4    46    45    1
     5     8     9    1
     6    45    42    1
     7    42    43    1
     8     9    10    1
     9     9    12    1
    10    11    10    2
    11    10    14   am
    12    43    44    2
    13    43    48   am
    14    12    13    1
    15    63    61    1
    16    62    60    1
    17    61    60    1
    18    14    15    1
    19    48    49    1
    20    60    57    1
    21    15    16    1
    22    15    18    1
    23    40    39    1
    24    32    31    2
    25    71    70    1
    26    51    50    2
    27    37    39   ar
    28    37    35   ar
    29    49    50    1
    30    16    17    2
    31    16    22   am
    32    39    38   ar
    33    18    19    1
    34    18    20    1
    35    57    58    1
    36    57    56    1
    37    22    23    1
    38    24    25    2
    39    24    23    1
    40    27    26    1
    41    50    52   am
    42    70    69    1
    43    35    34   ar
    44    19    21    1
    45    31    30    1
    46    38    36   ar
    47    58    59    2
    48    56    54   am
    49    23    26    1
    50    55    54    2
    51     1     2    1
    52    54    53    1
    53    68    69    1
    54    68    65    1
    55    34    36   ar
    56    34    33    1
    57    30    33    1
    58    30    29    1
    59    26    28    1
    60    52    53    1
    61    64    65    1
    62     2     5    1
    63     2     3    1
    64    65    66    1
    65     5     7    1
    66     5     6    1
    67     3     4    2
    68    72    66   am
    69    72    73    1
    70   130   129    1
    71    66    67    2
    72    76    73    1
    73    76    77    1
    74   112   111    2
    75   108   107    1
    76    73    74    1
    77    78    77   ar
    78    78    80   ar
    79    77    79   ar
    80   123   124    1
    81   111   110    1
    82   129   128    1
    83   127   128    1
    84   127   124    1
    85   107   106   ar
    86   107   105   ar
    87    80    82   ar
    88   125   124    1
    89   125   126    2
    90    79    81   ar
    91   113   110    1
    92   113   114    1
    93   106   104   ar
    94    74    75    2
    95   110   109    1
    96    90    88    1
    97   119   121   ar
    98   119   116   ar
    99   105   103   ar
   100    82    81   ar
   101    82    83    1
   102   114   116   ar
   103   114   115   ar
   104   121   122   ar
   105   104   102   ar
   106   116   118   ar
   107   103   102   ar
   108    89    88    1
   109    88    85    1
   110   115   117   ar
   111   102   101    1
   112    84    85    1
   113   122   120   ar
   114   118   117   ar
   115   118   120   ar
   116    85    86    1
   117    91    86   am
   118    91    92    1
   119    86    87    2
   120    95    92    1
   121    95    96    1
   122    92    93    1
   123   101    98    1
   124    93    94    2
   125    98    97    1
   126    98    99    1
   127   100    99    2
