@<TRIPOS>MOLECULE
tmp/1dotA00.pdb
 83 76 0 0 0
SMALL
GASTEIGER

@<TRIPOS>ATOM
      1  N         25.7720   47.4580   11.5400 N.3   465  ASN465     -0.1225
      2  CA        26.8670   47.8440   12.3690 C.3   465  ASN465      0.1785
      3  C         27.9660   48.6640   11.6970 C.2   465  ASN465      0.2597
      4  O         28.5100   49.5980   12.3080 O.2   465  ASN465     -0.2718
      5  CB        27.5440   46.6430   13.0750 C.3   465  ASN465      0.1169
      6  CG        26.8000   45.9750   14.1420 C.2   465  ASN465      0.2627
      7  OD1       25.6730   46.3240   14.4550 O.2   465  ASN465     -0.2716
      8  ND2       27.4190   44.9260   14.6900 N.am  465  ASN465     -0.0877
      9  N         28.4380   48.1600   10.5910 N.am  466  ILE466     -0.1980
     10  CA        29.4290   48.8630    9.7630 C.3   466  ILE466      0.1595
     11  C         28.7770   50.1650    9.2720 C.2   466  ILE466      0.2287
     12  O         29.2940   51.1980    9.6710 O.2   466  ILE466     -0.2864
     13  CB        30.0290   47.9200    8.6790 C.3   466  ILE466      0.0276
     14  CG1       30.6710   46.7070    9.3590 C.3   466  ILE466      0.0022
     15  CG2       31.0320   48.6740    7.7700 C.3   466  ILE466      0.0022
     16  CD1       31.8210   46.9420   10.3720 C.3   466  ILE466      0.0001
     17  N         27.5610   52.2090   12.2460 N.3   469  GLY469     -0.1210
     18  CA        28.7960   52.4580   13.0480 C.3   469  GLY469      0.1956
     19  C         29.4880   53.6620   12.3970 C.2   469  GLY469      0.2611
     20  O         29.7510   54.5900   13.1240 O.2   469  GLY469     -0.2717
     21  N         29.7500   53.6170   11.1040 N.am  470  LEU470     -0.1979
     22  CA        30.3150   54.6130   10.2210 C.3   470  LEU470      0.1596
     23  C         29.5360   55.9240   10.1370 C.2   470  LEU470      0.2287
     24  O         30.2050   56.9860   10.3100 O.2   470  LEU470     -0.2864
     25  CB        30.5340   53.9810    8.8540 C.3   470  LEU470      0.0297
     26  CG        31.8660   53.6160    8.2790 C.3   470  LEU470      0.0022
     27  CD1       32.9000   53.1760    9.2850 C.3   470  LEU470      0.0001
     28  CD2       31.6210   52.4640    7.2950 C.3   470  LEU470      0.0001
     29  N         29.7200   57.7080   13.6220 N.3   473  ASN473     -0.1240
     30  CA        31.0440   58.2990   13.8310 C.3   473  ASN473      0.1653
     31  C         31.0790   59.6590   13.1280 C.2   473  ASN473      0.2266
     32  O         31.6430   60.6300   13.6820 O.2   473  ASN473     -0.2867
     33  CB        32.1580   57.3470   13.4350 C.3   473  ASN473      0.1155
     34  CG        32.4880   56.2140   14.3670 C.2   473  ASN473      0.2627
     35  OD1       31.7770   55.9020   15.3250 O.2   473  ASN473     -0.2716
     36  ND2       33.6380   55.5540   14.1460 N.am  473  ASN473     -0.0877
     37  N         32.9960   48.8800    2.7310 N.3   586  LEU586     -0.1231
     38  CA        32.7220   49.5670    4.0020 C.3   586  LEU586      0.1693
     39  C         33.7240   49.1340    5.0820 C.2   586  LEU586      0.2591
     40  O         34.2580   49.9780    5.8460 O.2   586  LEU586     -0.2718
     41  CB        31.2640   49.5700    4.3610 C.3   586  LEU586      0.0284
     42  CG        30.3120   50.5640    3.7810 C.3   586  LEU586      0.0019
     43  CD1       29.2670   51.0140    4.8020 C.3   586  LEU586      0.0001
     44  CD2       30.9940   51.8160    3.2190 C.3   586  LEU586      0.0001
     45  N         34.0720   47.8670    5.1130 N.am  587  ALA587     -0.1980
     46  CA        35.1290   47.3310    5.9470 C.3   587  ALA587      0.1597
     47  C         35.1430   45.8010    5.8310 C.2   587  ALA587      0.2287
     48  O         34.1750   45.2080    5.4320 O.2   587  ALA587     -0.2864
     49  CB        35.0380   47.7680    7.4010 C.3   587  ALA587      0.0319
     50  N         39.3210   45.2530   15.6290 N.3   660  GLU660     -0.1245
     51  CA        38.6100   46.2330   14.7880 C.3   660  GLU660      0.1567
     52  C         37.0850   46.0990   14.9410 C.2   660  GLU660      0.2260
     53  O         36.4320   47.1170   15.2110 O.2   660  GLU660     -0.2867
     54  CB        38.7830   46.2300   13.2850 C.3   660  GLU660      0.0388
     55  CG        39.6430   47.0420   12.3840 C.3   660  GLU660      0.1160
     56  CD        41.1260   46.8750   12.6210 C.2   660  GLU660      0.3649
     57  OE1       41.6700   45.7930   12.3630 O.co2 660  GLU660     -0.2457
     58  OE2       41.6440   47.8670   13.2220 O.co2 660  GLU660     -0.2457
     59  N         35.7760   46.5500   18.4890 N.3   663  ALA663     -0.1231
     60  CA        35.7400   47.9820   18.7950 C.3   663  ALA663      0.1694
     61  C         34.6460   48.6850   18.0570 C.2   663  ALA663      0.2592
     62  O         34.0430   49.5560   18.7540 O.2   663  ALA663     -0.2718
     63  CB        37.1200   48.5570   18.7370 C.3   663  ALA663      0.0304
     64  N         34.2250   48.3790   16.8470 N.am  664  SER664     -0.1952
     65  CA        33.1030   49.0430   16.1820 C.3   664  SER664      0.1924
     66  C         31.7270   48.7160   16.7140 C.2   664  SER664      0.2314
     67  O         30.8170   49.6050   16.6670 O.2   664  SER664     -0.2863
     68  CB        33.1070   48.7520   14.6540 C.3   664  SER664      0.2116
     69  OG        34.4430   48.9140   14.2510 O.3   664  SER664     -0.2180
     70  N         31.6770   50.5820   20.5440 N.3   667  SER667     -0.1202
     71  CA        31.3920   51.9470   20.1560 C.3   667  SER667      0.2020
     72  C         29.9990   52.1980   19.6070 C.2   667  SER667      0.2618
     73  O         29.3970   53.1480   20.2010 O.2   667  SER667     -0.2717
     74  CB        32.3850   52.5480   19.1660 C.3   667  SER667      0.2103
     75  OG        31.8500   53.8610   18.8010 O.3   667  SER667     -0.2182
     76  N         29.4270   51.5300   18.6230 N.am  668  LEU668     -0.1979
     77  CA        28.0530   51.7280   18.1590 C.3   668  LEU668      0.1596
     78  C         27.0330   51.5840   19.2820 C.2   668  LEU668      0.2287
     79  O         26.0230   52.2880   19.4240 O.2   668  LEU668     -0.2864
     80  CB        27.8410   50.7170   17.0450 C.3   668  LEU668      0.0297
     81  CG        26.8070   50.7260   15.9600 C.3   668  LEU668      0.0022
     82  CD1       25.6410   49.7830   16.1190 C.3   668  LEU668      0.0001
     83  CD2       26.1590   52.1180   15.7420 C.3   668  LEU668      0.0001
@<TRIPOS>BOND
     1    37    38    1
     2    44    42    1
     3    42    41    1
     4    42    43    1
     5    38    41    1
     6    38    39    1
     7    39    45   am
     8    39    40    2
     9    45    46    1
    10    48    47    2
    11    47    46    1
    12    46    49    1
    13    28    26    1
    14    15    13    1
    15    26    25    1
    16    26    27    1
    17    13    14    1
    18    13    10    1
    19    25    22    1
    20    11    12    2
    21    11    10    1
    22    14    16    1
    23    10     9    1
    24    23    22    1
    25    23    24    2
    26    22    21    1
    27     9     3   am
    28    21    19   am
    29     1     2    1
    30     3     4    2
    31     3     2    1
    32    17    18    1
    33    57    56   ar
    34     2     5    1
    35    55    56    1
    36    55    54    1
    37    19    18    1
    38    19    20    2
    39    56    58   ar
    40     5     6    1
    41    31    32    2
    42    31    30    1
    43    54    51    1
    44    33    30    1
    45    33    34    1
    46    29    30    1
    47     6     7    2
    48     6     8   am
    49    36    34   am
    50    69    68    1
    51    34    35    2
    52    68    65    1
    53    51    52    1
    54    51    50    1
    55    52    53    2
    56    83    81    1
    57    81    82    1
    58    81    80    1
    59    65    66    1
    60    65    64    1
    61    67    66    2
    62    64    61   am
    63    80    77    1
    64    61    62    2
    65    61    60    1
    66    77    76    1
    67    77    78    1
    68    59    60    1
    69    76    72   am
    70    63    60    1
    71    75    74    1
    72    74    71    1
    73    78    79    2
    74    72    71    1
    75    72    73    2
    76    71    70    1
