@<TRIPOS>MOLECULE
tmp/1dp2A00.pdb
 132 128 0 0 0
SMALL
GASTEIGER

@<TRIPOS>ATOM
      1  N         38.8700   26.2710   41.1470 N.3    35  TRP35      -0.1241
      2  CA        39.4880   26.3060   39.8380 C.3    35  TRP35       0.1605
      3  C         39.0640   24.9770   39.2240 C.2    35  TRP35       0.2264
      4  O         38.9920   23.9520   39.9200 O.2    35  TRP35      -0.2867
      5  CB        41.0110   26.3520   39.9020 C.3    35  TRP35       0.0550
      6  CG        41.6460   26.4530   38.5210 C.ar   35  TRP35       0.0003
      7  CD1       41.8800   27.6790   37.9570 C.ar   35  TRP35       0.0946
      8  CD2       41.9770   25.4010   37.6900 C.ar   35  TRP35       0.0152
      9  NE1       42.3550   27.3970   36.7720 N.ar   35  TRP35      -0.2442
     10  CE2       42.4280   26.0660   36.5770 C.ar   35  TRP35       0.0810
     11  CE3       41.9580   24.0210   37.7150 C.ar   35  TRP35       0.0012
     12  CZ2       42.8620   25.3560   35.4670 C.ar   35  TRP35       0.0191
     13  CZ3       42.3880   23.3110   36.6150 C.ar   35  TRP35       0.0001
     14  CH2       42.8350   23.9730   35.4900 C.ar   35  TRP35       0.0015
     15  N         39.1900   22.6560   35.2530 N.3    37  SER37      -0.1217
     16  CA        39.7150   22.6120   33.9010 C.3    37  SER37       0.1889
     17  C         38.9170   23.4870   32.9720 C.2    37  SER37       0.2288
     18  O         37.6900   23.5910   33.1210 O.2    37  SER37      -0.2866
     19  CB        39.6890   21.1940   33.3920 C.3    37  SER37       0.2089
     20  OG        40.6550   20.4410   34.1170 O.3    37  SER37      -0.2183
     21  N         39.0170   20.0940   46.4180 N.3   106  PHE106     -0.1227
     22  CA        40.0320   19.9040   45.4200 C.3   106  PHE106      0.1736
     23  C         41.1080   20.9800   45.5670 C.2   106  PHE106      0.2595
     24  O         42.2180   20.6280   45.9610 O.2   106  PHE106     -0.2718
     25  CB        39.3840   19.9550   44.0480 C.3   106  PHE106      0.0547
     26  CG        40.2480   19.3220   42.9630 C.ar  106  PHE106     -0.0202
     27  CD1       41.5140   19.7950   42.6770 C.ar  106  PHE106     -0.0042
     28  CD2       39.7310   18.2720   42.2410 C.ar  106  PHE106     -0.0042
     29  CE1       42.2530   19.2190   41.6740 C.ar  106  PHE106     -0.0003
     30  CE2       40.4830   17.7010   41.2370 C.ar  106  PHE106     -0.0003
     31  CZ        41.7380   18.1730   40.9520 C.ar  106  PHE106     -0.0000
     32  N         40.8540   22.2660   45.2860 N.am  107  TYR107     -0.1976
     33  CA        41.8920   23.2990   45.3550 C.3   107  TYR107      0.1639
     34  C         42.0520   23.9150   46.7120 C.2   107  TYR107      0.2290
     35  O         43.1180   24.4420   47.0390 O.2   107  TYR107     -0.2864
     36  CB        41.6120   24.4340   44.3770 C.3   107  TYR107      0.0560
     37  CG        42.3360   24.1880   43.0680 C.ar  107  TYR107     -0.0198
     38  CD1       43.4660   24.9190   42.7840 C.ar  107  TYR107     -0.0009
     39  CD2       41.8950   23.2120   42.2010 C.ar  107  TYR107     -0.0009
     40  CE1       44.1770   24.6720   41.6320 C.ar  107  TYR107      0.0417
     41  CE2       42.6060   22.9550   41.0470 C.ar  107  TYR107      0.0417
     42  CZ        43.7360   23.6900   40.7780 C.ar  107  TYR107      0.1957
     43  OH        44.4640   23.3970   39.6470 O.3   107  TYR107     -0.2866
     44  N         47.9670   11.4280   42.5170 N.3   182  ARG182     -0.1231
     45  CA        47.1930   11.2960   41.2900 C.3   182  ARG182      0.1694
     46  C         46.4050    9.9950   41.2720 C.2   182  ARG182      0.2591
     47  O         46.7100    9.0480   42.0040 O.2   182  ARG182     -0.2718
     48  CB        48.0950   11.3110   40.0580 C.3   182  ARG182      0.0321
     49  CG        48.5870   12.6920   39.6990 C.3   182  ARG182      0.0489
     50  CD        49.5570   12.5810   38.5550 C.3   182  ARG182      0.2205
     51  NE        50.7520   11.8510   38.9560 N.pl3 182  ARG182     -0.0865
     52  CZ        51.5520   11.2370   38.0710 C.cat 182  ARG182      0.5346
     53  NH1       51.3250   11.2360   36.7490 N.pl3 182  ARG182      0.1354
     54  NH2       52.6140   10.5800   38.5120 N.pl3 182  ARG182      0.1354
     55  N         45.3330    9.9680   40.4750 N.am  183  ALA183     -0.1980
     56  CA        44.5460    8.7590   40.3080 C.3   183  ALA183      0.1597
     57  C         45.4650    7.6270   39.8420 C.2   183  ALA183      0.2287
     58  O         46.4730    7.8270   39.1360 O.2   183  ALA183     -0.2864
     59  CB        43.4650    8.9850   39.2690 C.3   183  ALA183      0.0319
     60  N         46.8520    7.2270   36.1550 N.3   186  ARG186     -0.1245
     61  CA        47.8420    8.2160   35.7520 C.3   186  ARG186      0.1563
     62  C         49.1810    7.9070   36.4070 C.2   186  ARG186      0.2260
     63  O         50.2580    8.0420   35.8070 O.2   186  ARG186     -0.2867
     64  CB        47.3450    9.5910   36.1530 C.3   186  ARG186      0.0307
     65  CG        46.2360   10.0360   35.2320 C.3   186  ARG186      0.0489
     66  CD        45.5670   11.2920   35.7470 C.3   186  ARG186      0.2205
     67  NE        46.4550   12.4420   35.8550 N.pl3 186  ARG186     -0.0865
     68  CZ        45.9660   13.6550   36.1140 C.cat 186  ARG186      0.5346
     69  NH1       44.6590   13.8430   36.2760 N.pl3 186  ARG186      0.1354
     70  NH2       46.7740   14.6980   36.2280 N.pl3 186  ARG186      0.1354
     71  N         46.6120    5.5020   32.1610 N.3   191  GLN191     -0.1245
     72  CA        45.7030    6.5690   31.7600 C.3   191  GLN191      0.1566
     73  C         46.5900    7.7350   31.3680 C.2   191  GLN191      0.2260
     74  O         47.6300    7.9310   32.0020 O.2   191  GLN191     -0.2867
     75  CB        44.7890    7.0500   32.8930 C.3   191  GLN191      0.0367
     76  CG        43.5610    6.1960   33.1750 C.3   191  GLN191      0.0905
     77  CD        42.6940    5.9800   31.9350 C.2   191  GLN191      0.2608
     78  OE1       42.4610    4.8490   31.5210 O.2   191  GLN191     -0.2717
     79  NE2       42.1750    7.0110   31.2740 N.am  191  GLN191     -0.0878
     80  N         46.0860   14.5940   31.3200 N.3   194  PRO194     -0.2116
     81  CA        45.2430   15.5340   30.6030 C.3   194  PRO194      0.1372
     82  C         45.8870   16.8990   30.3870 C.2   194  PRO194      0.2244
     83  O         46.9030   17.2430   30.9850 O.2   194  PRO194     -0.2868
     84  CB        43.9930   15.5900   31.4480 C.3   194  PRO194      0.0268
     85  CG        44.5570   15.5360   32.8390 C.3   194  PRO194      0.0207
     86  CD        45.5920   14.4110   32.6860 C.3   194  PRO194      0.0892
     87  N         44.2130   11.0290   45.9300 N.3   212  PHE212     -0.1227
     88  CA        43.6380   11.9840   46.8610 C.3   212  PHE212      0.1736
     89  C         42.1690   11.8010   47.1960 C.2   212  PHE212      0.2595
     90  O         41.7080   12.1010   48.2970 O.2   212  PHE212     -0.2718
     91  CB        43.8530   13.4070   46.3330 C.3   212  PHE212      0.0547
     92  CG        42.9940   13.8570   45.1440 C.ar  212  PHE212     -0.0202
     93  CD1       41.8570   14.6220   45.3800 C.ar  212  PHE212     -0.0042
     94  CD2       43.3520   13.5040   43.8550 C.ar  212  PHE212     -0.0042
     95  CE1       41.0810   15.0360   44.3170 C.ar  212  PHE212     -0.0003
     96  CE2       42.5710   13.9280   42.8040 C.ar  212  PHE212     -0.0003
     97  CZ        41.4470   14.6910   43.0350 C.ar  212  PHE212     -0.0000
     98  N         41.4200   11.2210   46.2820 N.am  213  MET213     -0.1979
     99  CA        39.9700   11.1170   46.4600 C.3   213  MET213      0.1605
    100  C         39.6060   10.1080   47.5320 C.2   213  MET213      0.2287
    101  O         38.5530   10.1950   48.1510 O.2   213  MET213     -0.2864
    102  CB        39.2910   10.7210   45.1590 C.3   213  MET213      0.0413
    103  CG        40.2070   10.7260   43.9350 C.3   213  MET213      0.0598
    104  SD        39.2000   10.5750   42.4640 S.3   213  MET213     -0.1393
    105  CE        38.5320   12.2150   42.4230 C.3   213  MET213      0.0692
    106  N         50.3320   15.9840   39.8440 N.3   247  ARG247     -0.1231
    107  CA        50.5300   16.5970   38.5420 C.3   247  ARG247      0.1694
    108  C         51.1910   17.9720   38.6230 C.2   247  ARG247      0.2591
    109  O         52.2250   18.2120   38.0170 O.2   247  ARG247     -0.2718
    110  CB        49.1570   16.7020   37.8170 C.3   247  ARG247      0.0321
    111  CG        49.0730   17.6170   36.5820 C.3   247  ARG247      0.0489
    112  CD        50.0670   17.3130   35.4700 C.3   247  ARG247      0.2205
    113  NE        49.8630   18.2940   34.4140 N.pl3 247  ARG247     -0.0865
    114  CZ        49.0660   18.0650   33.3690 C.cat 247  ARG247      0.5346
    115  NH1       48.4430   16.9030   33.2290 N.pl3 247  ARG247      0.1354
    116  NH2       48.7790   19.0590   32.5330 N.pl3 247  ARG247      0.1354
    117  N         50.6210   18.8790   39.4210 N.am  248  LYS248     -0.1980
    118  CA        51.0660   20.2650   39.4680 C.3   248  LYS248      0.1596
    119  C         51.1290   20.8910   40.8600 C.2   248  LYS248      0.2287
    120  O         50.9040   22.0970   40.9870 O.2   248  LYS248     -0.2864
    121  CB        50.1310   21.0720   38.5850 C.3   248  LYS248      0.0298
    122  CG        48.6390   20.9810   38.9100 C.3   248  LYS248      0.0038
    123  CD        48.0220   21.3790   37.5910 C.3   248  LYS248      0.0206
    124  CE        46.5330   21.4140   37.5520 C.3   248  LYS248      0.1093
    125  NZ        46.0830   21.7740   36.2190 N.3   248  LYS248     -0.1314
    126  N         46.6980   18.5590   44.1540 N.3   251  THR251     -0.1218
    127  CA        46.0690   17.5130   44.9610 C.3   251  THR251      0.1862
    128  C         47.0330   16.8800   45.9500 C.2   251  THR251      0.2287
    129  O         46.5850   16.2660   46.9290 O.2   251  THR251     -0.2866
    130  CB        45.4520   16.3820   44.0840 C.3   251  THR251      0.1770
    131  OG1       46.4740   15.6690   43.3850 O.3   251  THR251     -0.2211
    132  CG2       44.4540   16.9850   43.1400 C.3   251  THR251      0.0375
@<TRIPOS>BOND
     1    82    81    1
     2    82    83    2
     3    81    80    1
     4    81    84    1
     5    79    77   am
     6    80    86    1
     7    73    72    1
     8    73    74    2
     9    84    85    1
    10    78    77    2
    11    72    71    1
    12    72    75    1
    13    77    76    1
    14   116   114    1
    15    86    85    1
    16    75    76    1
    17    17    18    2
    18    17    16    1
    19   115   114    1
    20   114   113    2
    21    19    16    1
    22    19    20    1
    23    16    15    1
    24   113   112    1
    25    65    66    1
    26    65    64    1
    27    12    14   ar
    28    12    10   ar
    29   112   111    1
    30    14    13   ar
    31    66    67    1
    32    61    64    1
    33    61    60    1
    34    61    62    1
    35    63    62    2
    36    67    68    2
    37    68    70    1
    38    68    69    1
    39   125   124    1
    40    10     9   ar
    41    10     8   ar
    42   111   110    1
    43    13    11   ar
    44    53    52    1
    45     9     7   ar
    46   124   123    1
    47   123   122    1
    48     8    11   ar
    49     8     6   ar
    50   110   107    1
    51     7     6   ar
    52   109   108    2
    53    52    54    1
    54    52    51    2
    55     6     5    1
    56   107   108    1
    57   107   106    1
    58    50    51    1
    59    50    49    1
    60   121   122    1
    61   121   118    1
    62   108   117   am
    63    58    57    2
    64     3     2    1
    65     3     4    2
    66    59    56    1
    67   117   118    1
    68   118   119    1
    69    43    42    1
    70    49    48    1
    71     2     5    1
    72     2     1    1
    73    57    56    1
    74    48    45    1
    75    56    55    1
    76    55    46   am
    77    42    41   ar
    78    42    40   ar
    79   119   120    2
    80    31    30   ar
    81    31    29   ar
    82    41    39   ar
    83    30    28   ar
    84    46    45    1
    85    46    47    2
    86    45    44    1
    87    40    38   ar
    88    29    27   ar
    89    39    37   ar
    90    28    26   ar
    91   105   104    1
    92   104   103    1
    93    27    26   ar
    94    38    37   ar
    95    96    97   ar
    96    96    94   ar
    97    26    25    1
    98    97    95   ar
    99    37    36    1
   100   132   130    1
   101   131   130    1
   102    94    92   ar
   103   103   102    1
   104    25    22    1
   105   130   127    1
   106   126   127    1
   107    95    93   ar
   108    36    33    1
   109   127   128    1
   110    92    93   ar
   111    92    91    1
   112   102    99    1
   113    32    33    1
   114    32    23   am
   115    33    34    1
   116    22    23    1
   117    22    21    1
   118    23    24    2
   119    87    88    1
   120   128   129    2
   121    98    99    1
   122    98    89   am
   123    91    88    1
   124    99   100    1
   125    34    35    2
   126    88    89    1
   127    89    90    2
   128   100   101    2
