@<TRIPOS>MOLECULE
tmp/1dp4A00.pdb
 81 76 0 0 0
SMALL
GASTEIGER

@<TRIPOS>ATOM
      1  N         33.1860  150.5890   20.4710 N.3    12  THR12      -0.1203
      2  CA        34.1040  150.2130   21.5420 C.3    12  THR12       0.1994
      3  C         34.9790  151.3560   21.9980 C.2    12  THR12       0.2617
      4  O         35.3010  151.4560   23.1850 O.2    12  THR12      -0.2717
      5  CB        34.9810  149.0250   21.1390 C.3    12  THR12       0.1784
      6  OG1       35.8410  149.4070   20.0650 O.3    12  THR12      -0.2211
      7  CG2       34.1070  147.8670   20.6890 C.3    12  THR12       0.0376
      8  N         35.3630  152.2320   21.0740 N.am   13  ASN13      -0.1974
      9  CA        36.1780  153.3690   21.4590 C.3    13  ASN13       0.1688
     10  C         35.2280  154.3910   22.1220 C.2    13  ASN13       0.2292
     11  O         34.2270  154.8020   21.5160 O.2    13  ASN13      -0.2864
     12  CB        36.8280  153.9800   20.2230 C.3    13  ASN13       0.1181
     13  CG        37.8910  154.9640   20.5790 C.2    13  ASN13       0.2629
     14  OD1       37.6380  155.9270   21.3020 O.2    13  ASN13      -0.2716
     15  ND2       39.0940  154.7180   20.0770 N.am   13  ASN13      -0.0877
     16  N         36.1870  157.4510   23.2650 N.3    15  SER15      -0.1202
     17  CA        36.7440  158.7950   23.2190 C.3    15  SER15       0.2020
     18  C         36.0700  159.8620   22.3550 C.2    15  SER15       0.2618
     19  O         36.4690  161.0190   22.4060 O.2    15  SER15      -0.2717
     20  CB        38.2160  158.7110   22.8060 C.3    15  SER15       0.2103
     21  OG        38.3160  158.4310   21.4210 O.3    15  SER15      -0.2182
     22  N         35.0870  159.4920   21.5410 N.am   16  TYR16      -0.1975
     23  CA        34.4160  160.4720   20.6690 C.3    16  TYR16       0.1639
     24  C         33.1290  161.0130   21.2880 C.2    16  TYR16       0.2290
     25  O         32.4900  160.3270   22.0760 O.2    16  TYR16      -0.2864
     26  CB        34.0340  159.8200   19.3260 C.3    16  TYR16       0.0560
     27  CG        35.1810  159.2020   18.5590 C.ar   16  TYR16      -0.0198
     28  CD1       35.4910  157.8360   18.6940 C.ar   16  TYR16      -0.0009
     29  CD2       35.9510  159.9740   17.6860 C.ar   16  TYR16      -0.0009
     30  CE1       36.5550  157.2590   17.9590 C.ar   16  TYR16       0.0417
     31  CE2       37.0000  159.4100   16.9540 C.ar   16  TYR16       0.0417
     32  CZ        37.2900  158.0590   17.0940 C.ar   16  TYR16       0.1957
     33  OH        38.3050  157.5250   16.3400 O.3    16  TYR16      -0.2866
     34  N         34.5000  151.7030   13.5180 N.3    54  GLU54      -0.1245
     35  CA        35.9480  151.5240   13.8060 C.3    54  GLU54       0.1567
     36  C         36.7200  150.4680   13.0190 C.2    54  GLU54       0.2260
     37  O         36.2100  149.3860   12.7490 O.2    54  GLU54      -0.2867
     38  CB        36.1660  151.1670   15.2940 C.3    54  GLU54       0.0388
     39  CG        35.7470  152.2390   16.3260 C.3    54  GLU54       0.1160
     40  CD        35.6060  151.6520   17.7330 C.2    54  GLU54       0.3649
     41  OE1       36.4840  150.8780   18.1630 O.co2  54  GLU54      -0.2457
     42  OE2       34.6190  151.9750   18.4060 O.co2  54  GLU54      -0.2457
     43  N         42.4180  149.1360   14.4690 N.3    57  ALA57      -0.1231
     44  CA        43.1450  149.9590   15.4250 C.3    57  ALA57       0.1694
     45  C         42.1950  150.6640   16.4090 C.2    57  ALA57       0.2593
     46  O         42.6400  151.3480   17.3270 O.2    57  ALA57      -0.2718
     47  CB        43.9870  150.9890   14.6950 C.3    57  ALA57       0.0304
     48  N         40.8900  150.5200   16.2090 N.am   58  GLY58      -0.1942
     49  CA        39.9530  151.1470   17.1280 C.3    58  GLY58       0.2014
     50  C         39.5520  152.5950   16.8650 C.2    58  GLY58       0.2638
     51  O         38.9710  153.2380   17.7500 O.2    58  GLY58      -0.2714
     52  N         39.8500  153.1170   15.6740 N.am   59  VAL59      -0.1977
     53  CA        39.4810  154.4890   15.3400 C.3    59  VAL59       0.1596
     54  C         38.4190  154.5050   14.2460 C.2    59  VAL59       0.2287
     55  O         38.3470  153.5870   13.4200 O.2    59  VAL59      -0.2864
     56  CB        40.6970  155.3180   14.8790 C.3    59  VAL59       0.0276
     57  CG1       41.7350  155.3610   16.0000 C.3    59  VAL59       0.0022
     58  CG2       41.3020  154.7300   13.6210 C.3    59  VAL59       0.0022
     59  N         46.3390  166.9130   14.4090 N.3   157  ARG157     -0.1245
     60  CA        47.3680  165.8970   14.6340 C.3   157  ARG157      0.1563
     61  C         47.9290  165.3890   13.3080 C.2   157  ARG157      0.2260
     62  O         48.1060  166.1640   12.3600 O.2   157  ARG157     -0.2867
     63  CB        46.8140  164.7140   15.4300 C.3   157  ARG157      0.0307
     64  CG        46.5310  165.0280   16.8780 C.3   157  ARG157      0.0489
     65  CD        46.7230  163.7930   17.7570 C.3   157  ARG157      0.2205
     66  NE        46.6260  164.1260   19.1780 N.pl3 157  ARG157     -0.0865
     67  CZ        46.9840  163.3140   20.1700 C.cat 157  ARG157      0.5346
     68  NH1       47.4690  162.1080   19.9020 N.pl3 157  ARG157      0.1354
     69  NH2       46.8610  163.7130   21.4310 N.pl3 157  ARG157      0.1354
     70  N         46.9720  161.8740   11.8750 N.3   159  GLY159     -0.1210
     71  CA        45.9710  161.1040   11.1610 C.3   159  GLY159      0.1956
     72  C         44.6600  160.9270   11.8990 C.2   159  GLY159      0.2611
     73  O         44.2840  159.8060   12.2490 O.2   159  GLY159     -0.2717
     74  N         43.9530  162.0270   12.1320 N.am  160  ASP160     -0.1973
     75  CA        42.6730  161.9670   12.8280 C.3   160  ASP160      0.1709
     76  C         41.5540  162.4440   11.9120 C.2   160  ASP160      0.2293
     77  O         41.6950  162.4640   10.6890 O.2   160  ASP160     -0.2864
     78  CB        42.7210  162.8400   14.0780 C.3   160  ASP160      0.1436
     79  CG        43.3600  164.1850   13.8110 C.2   160  ASP160      0.3671
     80  OD1       43.0240  164.8040   12.7720 O.co2 160  ASP160     -0.2456
     81  OD2       44.1960  164.6170   14.6330 O.co2 160  ASP160     -0.2456
@<TRIPOS>BOND
     1    77    76    2
     2    71    70    1
     3    71    72    1
     4    72    74   am
     5    72    73    2
     6    76    75    1
     7    74    75    1
     8    62    61    2
     9    37    36    2
    10    80    79   ar
    11    75    78    1
    12    36    35    1
    13    61    60    1
    14    55    54    2
    15    34    35    1
    16    58    56    1
    17    35    38    1
    18    79    78    1
    19    79    81   ar
    20    54    53    1
    21    59    60    1
    22    43    44    1
    23    60    63    1
    24    47    44    1
    25    56    53    1
    26    56    57    1
    27    38    39    1
    28    53    52    1
    29    44    45    1
    30    63    64    1
    31    52    50   am
    32    48    45   am
    33    48    49    1
    34    39    40    1
    35    33    32    1
    36    45    46    2
    37    50    49    1
    38    50    51    2
    39    64    65    1
    40    31    32   ar
    41    31    29   ar
    42    32    30   ar
    43    29    27   ar
    44    40    41   ar
    45    40    42   ar
    46    65    66    1
    47    30    28   ar
    48    27    28   ar
    49    27    26    1
    50    66    67    2
    51    26    23    1
    52    68    67    1
    53     6     5    1
    54    15    13   am
    55    67    69    1
    56    12    13    1
    57    12     9    1
    58     1     2    1
    59    13    14    2
    60    23    24    1
    61    23    22    1
    62     7     5    1
    63     8     9    1
    64     8     3   am
    65     5     2    1
    66    24    25    2
    67    21    20    1
    68     9    10    1
    69    11    10    2
    70    22    18   am
    71     2     3    1
    72     3     4    2
    73    18    19    2
    74    18    17    1
    75    20    17    1
    76    17    16    1
