@<TRIPOS>MOLECULE
tmp/1dp4A01.pdb
 82 74 0 0 0
SMALL
GASTEIGER

@<TRIPOS>ATOM
      1  N         27.1400  177.0660   22.3130 N.3   283  LYS283     -0.1245
      2  CA        26.4140  177.5530   23.4770 C.3   283  LYS283      0.1561
      3  C         25.9140  176.3940   24.3170 C.2   283  LYS283      0.2260
      4  O         25.3000  175.4610   23.8100 O.2   283  LYS283     -0.2867
      5  CB        25.2190  178.4120   23.0850 C.3   283  LYS283      0.0271
      6  CG        24.5290  178.9860   24.3330 C.3   283  LYS283      0.0035
      7  CD        23.2400  179.6800   24.0260 C.3   283  LYS283      0.0206
      8  CE        22.5400  180.0810   25.3250 C.3   283  LYS283      0.1093
      9  NZ        21.1280  180.3680   25.0410 N.3   283  LYS283     -0.1314
     10  N         20.8310  175.7670   28.4490 N.3   286  ASP286     -0.1239
     11  CA        20.5680  176.1000   29.8480 C.3   286  ASP286      0.1674
     12  C         19.1500  175.8490   30.3410 C.2   286  ASP286      0.2266
     13  O         18.7550  176.3930   31.3670 O.2   286  ASP286     -0.2867
     14  CB        20.9410  177.5680   30.1090 C.3   286  ASP286      0.1410
     15  CG        20.4360  178.4950   29.0210 C.2   286  ASP286      0.3668
     16  OD1       19.7480  178.0040   28.0980 O.co2 286  ASP286     -0.2456
     17  OD2       20.7260  179.7120   29.0780 O.co2 286  ASP286     -0.2456
     18  N         10.9310  173.4100   13.4880 N.3   356  SER356     -0.1217
     19  CA        11.4010  173.6600   14.8470 C.3   356  SER356      0.1889
     20  C         10.8130  172.5480   15.7030 C.2   356  SER356      0.2288
     21  O          9.8200  171.9300   15.3320 O.2   356  SER356     -0.2866
     22  CB        10.9750  175.0580   15.3230 C.3   356  SER356      0.2089
     23  OG         9.5630  175.1950   15.3450 O.3   356  SER356     -0.2183
     24  N         11.0310  170.8630   20.1410 N.3   358  GLN358     -0.1245
     25  CA        11.5320  171.0780   21.5060 C.3   358  GLN358      0.1566
     26  C         12.1300  169.7910   22.0450 C.2   358  GLN358      0.2260
     27  O         11.4670  168.7540   22.0540 O.2   358  GLN358     -0.2867
     28  CB        10.4080  171.5610   22.4430 C.3   358  GLN358      0.0367
     29  CG         9.9620  172.9900   22.1730 C.3   358  GLN358      0.0905
     30  CD        11.0080  174.0230   22.5820 C.2   358  GLN358      0.2608
     31  OE1       11.1360  175.0740   21.9480 O.2   358  GLN358     -0.2717
     32  NE2       11.7510  173.7330   23.6520 N.am  358  GLN358     -0.0878
     33  N         15.1420  174.6300   22.3780 N.3   363  TYR363     -0.1241
     34  CA        14.5840  174.8870   21.0660 C.3   363  TYR363      0.1605
     35  C         15.5800  174.4190   20.0260 C.2   363  TYR363      0.2264
     36  O         16.7810  174.6690   20.1630 O.2   363  TYR363     -0.2867
     37  CB        14.3400  176.3850   20.8870 C.3   363  TYR363      0.0534
     38  CG        14.0610  176.8250   19.4660 C.ar  363  TYR363     -0.0201
     39  CD1       15.1060  177.1560   18.5880 C.ar  363  TYR363     -0.0009
     40  CD2       12.7460  176.9460   19.0060 C.ar  363  TYR363     -0.0009
     41  CE1       14.8400  177.6040   17.2840 C.ar  363  TYR363      0.0417
     42  CE2       12.4710  177.3850   17.7200 C.ar  363  TYR363      0.0417
     43  CZ        13.5150  177.7170   16.8630 C.ar  363  TYR363      0.1957
     44  OH        13.2000  178.1700   15.6110 O.3   363  TYR363     -0.2866
     45  N         15.9320  174.0760   15.6610 N.3   365  LYS365     -0.1245
     46  CA        15.3960  174.3350   14.3440 C.3   365  LYS365      0.1561
     47  C         16.2570  173.6830   13.2730 C.2   365  LYS365      0.2260
     48  O         17.4610  173.9410   13.2100 O.2   365  LYS365     -0.2867
     49  CB        15.3430  175.8460   14.0960 C.3   365  LYS365      0.0271
     50  CG        14.9920  176.2490   12.6680 C.3   365  LYS365      0.0035
     51  CD        13.5320  175.9360   12.3220 C.3   365  LYS365      0.0206
     52  CE        13.2240  176.2790   10.8590 C.3   365  LYS365      0.1093
     53  NZ        13.4050  177.7180   10.5580 N.3   365  LYS365     -0.1314
     54  N         23.7160  177.4040   17.9990 N.3   375  ASP375     -0.1239
     55  CA        23.9480  178.6030   18.8120 C.3   375  ASP375      0.1674
     56  C         25.3860  178.6140   19.3500 C.2   375  ASP375      0.2266
     57  O         25.9670  177.5470   19.6430 O.2   375  ASP375     -0.2867
     58  CB        22.9580  178.6620   19.9820 C.3   375  ASP375      0.1410
     59  CG        21.5060  178.8550   19.5370 C.2   375  ASP375      0.3668
     60  OD1       21.2210  178.9340   18.3210 O.co2 375  ASP375     -0.2456
     61  OD2       20.6480  178.9190   20.4360 O.co2 375  ASP375     -0.2456
     62  N         22.1040  183.3530   18.4750 N.3   395  ASN395     -0.1240
     63  CA        20.9910  182.4600   18.2220 C.3   395  ASN395      0.1653
     64  C         21.1290  182.1180   16.7390 C.2   395  ASN395      0.2266
     65  O         21.0290  182.9960   15.8890 O.2   395  ASN395     -0.2867
     66  CB        19.6720  183.1920   18.5050 C.3   395  ASN395      0.1155
     67  CG        18.4710  182.3740   18.1220 C.2   395  ASN395      0.2627
     68  OD1       18.4320  181.7970   17.0340 O.2   395  ASN395     -0.2716
     69  ND2       17.4870  182.3200   19.0110 N.am  395  ASN395     -0.0877
     70  N         19.1660  180.6670   14.6710 N.3   397  THR397     -0.1203
     71  CA        17.9500  180.8010   13.8670 C.3   397  THR397      0.1994
     72  C         17.6180  182.2620   13.5480 C.2   397  THR397      0.2618
     73  O         17.4310  182.6230   12.3890 O.2   397  THR397     -0.2717
     74  CB        16.7660  180.1160   14.5780 C.3   397  THR397      0.1784
     75  OG1       17.0890  178.7270   14.7900 O.3   397  THR397     -0.2211
     76  CG2       15.4780  180.2320   13.7200 C.3   397  THR397      0.0376
     77  N         17.5660  183.1150   14.5680 N.am  398  SER398     -0.1951
     78  CA        17.2730  184.5260   14.3340 C.3   398  SER398      0.1924
     79  C         18.5210  185.2390   13.8650 C.2   398  SER398      0.2314
     80  O         18.4530  186.3440   13.3170 O.2   398  SER398     -0.2863
     81  CB        16.7980  185.1880   15.6210 C.3   398  SER398      0.2116
     82  OG        17.7990  185.0800   16.6250 O.3   398  SER398     -0.2180
@<TRIPOS>BOND
     1    53    52    1
     2    52    51    1
     3    51    50    1
     4    73    72    2
     5    50    49    1
     6    48    47    2
     7    47    46    1
     8    80    79    2
     9    18    19    1
    10    72    71    1
    11    72    77   am
    12    76    74    1
    13    79    78    1
    14    71    74    1
    15    71    70    1
    16    49    46    1
    17    78    77    1
    18    78    81    1
    19    46    45    1
    20    74    75    1
    21    19    22    1
    22    19    20    1
    23    22    23    1
    24    21    20    2
    25    44    43    1
    26    81    82    1
    27    65    64    2
    28    64    63    1
    29    43    41   ar
    30    43    42   ar
    31    68    67    2
    32    41    39   ar
    33    42    40   ar
    34    54    55    1
    35    67    66    1
    36    67    69   am
    37    63    62    1
    38    63    66    1
    39    60    59   ar
    40    39    38   ar
    41    55    56    1
    42    55    58    1
    43    40    38   ar
    44    56    57    2
    45    38    37    1
    46    59    58    1
    47    59    61   ar
    48    35    36    2
    49    35    34    1
    50    24    25    1
    51    37    34    1
    52    34    33    1
    53    25    26    1
    54    25    28    1
    55    31    30    2
    56    26    27    2
    57    29    28    1
    58    29    30    1
    59     1     2    1
    60    30    32   am
    61     5     2    1
    62     5     6    1
    63     2     3    1
    64     4     3    2
    65     7     6    1
    66     7     8    1
    67     9     8    1
    68    16    15   ar
    69    10    11    1
    70    15    17   ar
    71    15    14    1
    72    11    14    1
    73    11    12    1
    74    12    13    2
