@<TRIPOS>MOLECULE
tmp/1dpmB00.pdb
 179 177 0 0 0
SMALL
GASTEIGER

@<TRIPOS>ATOM
      1  N         40.4570  -30.2680    4.1980 N.3    23  HIS23      -0.1241
      2  CA        40.0160  -29.0480    4.9140 C.3    23  HIS23       0.1621
      3  C         38.9880  -28.2710    4.1050 C.2    23  HIS23       0.2264
      4  O         39.1660  -28.0970    2.8790 O.2    23  HIS23      -0.2867
      5  CB        41.1540  -28.0650    5.1770 C.3    23  HIS23       0.0745
      6  CG        42.3470  -28.6380    5.8780 C.ar   23  HIS23       0.0817
      7  ND1       42.4470  -28.6550    7.2780 N.ar   23  HIS23      -0.2268
      8  CD2       43.4790  -29.1880    5.3580 C.ar   23  HIS23       0.1154
      9  CE1       43.6270  -29.2060    7.5590 C.ar   23  HIS23       0.1986
     10  NE2       44.2730  -29.5370    6.4230 N.ar   23  HIS23      -0.2212
     11  N         41.2480  -23.2700    5.4510 N.3    26  GLY26      -0.1225
     12  CA        42.4670  -23.2180    6.2490 C.3    26  GLY26       0.1811
     13  C         42.6060  -21.8020    6.7750 C.2    26  GLY26       0.2280
     14  O         42.9360  -20.8790    6.0180 O.2    26  GLY26      -0.2866
     15  N         43.1380  -23.9720   13.4830 N.3    72  ILE72      -0.1245
     16  CA        43.0870  -23.9210   12.0290 C.3    72  ILE72       0.1561
     17  C         41.8090  -23.1110   11.6940 C.2    72  ILE72       0.2260
     18  O         41.4030  -22.8860   10.5460 O.2    72  ILE72      -0.2867
     19  CB        43.1730  -25.2970   11.3800 C.3    72  ILE72       0.0252
     20  CG1       44.6050  -25.8590   11.3760 C.3    72  ILE72       0.0019
     21  CG2       42.7350  -25.2150    9.9210 C.3    72  ILE72       0.0019
     22  CD1       44.7370  -27.3190   10.8620 C.3    72  ILE72       0.0001
     23  N         47.0340  -27.6900   16.0930 N.3    97  TRP97      -0.1227
     24  CA        48.0040  -27.6570   14.9600 C.3    97  TRP97       0.1737
     25  C         49.2160  -26.8290   15.3490 C.2    97  TRP97       0.2595
     26  O         49.6650  -26.9620   16.4750 O.2    97  TRP97      -0.2718
     27  CB        47.2520  -27.1140   13.7410 C.3    97  TRP97       0.0564
     28  CG        47.9740  -26.9850   12.4330 C.ar   97  TRP97       0.0003
     29  CD1       48.4320  -27.9660   11.5820 C.ar   97  TRP97       0.0946
     30  CD2       48.1740  -25.7530   11.7740 C.ar   97  TRP97       0.0152
     31  NE1       48.9640  -27.3990   10.4420 N.ar   97  TRP97      -0.2442
     32  CE2       48.7950  -26.0290   10.5460 C.ar   97  TRP97       0.0810
     33  CE3       47.8400  -24.4220   12.1220 C.ar   97  TRP97       0.0012
     34  CZ2       49.1100  -24.9790    9.6730 C.ar   97  TRP97       0.0191
     35  CZ3       48.1600  -23.4020   11.2660 C.ar   97  TRP97       0.0001
     36  CH2       48.7910  -23.6780   10.0470 C.ar   97  TRP97       0.0015
     37  N         49.7870  -25.9870   14.4830 N.am   98  PHE98      -0.1976
     38  CA        50.9510  -25.2650   14.9950 C.3    98  PHE98       0.1639
     39  C         50.7740  -23.8270   15.2500 C.2    98  PHE98       0.2290
     40  O         51.7340  -23.0970   15.3080 O.2    98  PHE98      -0.2864
     41  CB        52.2960  -25.4610   14.2660 C.3    98  PHE98       0.0560
     42  CG        52.2500  -25.5000   12.7640 C.ar   98  PHE98      -0.0200
     43  CD1       52.2010  -24.3510   11.9700 C.ar   98  PHE98      -0.0042
     44  CD2       52.1510  -26.7450   12.1300 C.ar   98  PHE98      -0.0042
     45  CE1       52.2460  -24.4410   10.5810 C.ar   98  PHE98      -0.0003
     46  CE2       52.2090  -26.8570   10.7430 C.ar   98  PHE98      -0.0003
     47  CZ        52.2860  -25.7010    9.9700 C.ar   98  PHE98      -0.0000
     48  N         43.7070  -34.3810   15.7820 N.3   135  LYS135     -0.1245
     49  CA        44.7980  -33.9790   14.9370 C.3   135  LYS135      0.1561
     50  C         45.9480  -33.3320   15.7170 C.2   135  LYS135      0.2260
     51  O         45.7000  -32.5010   16.5750 O.2   135  LYS135     -0.2867
     52  CB        44.2540  -33.0520   13.8120 C.3   135  LYS135      0.0271
     53  CG        45.3560  -32.1480   13.1920 C.3   135  LYS135      0.0035
     54  CD        46.2700  -32.9660   12.2900 C.3   135  LYS135      0.0206
     55  CE        47.2900  -32.1140   11.5960 C.3   135  LYS135      0.1093
     56  NZ        46.6770  -31.1710   10.6760 N.3   135  LYS135     -0.1314
     57  N         50.4950  -34.2300   11.3130 N.3   167  HIS167     -0.1241
     58  CA        51.1170  -33.4120   10.3000 C.3   167  HIS167      0.1621
     59  C         52.5770  -33.6080   10.6180 C.2   167  HIS167      0.2264
     60  O         52.9600  -33.5240   11.8000 O.2   167  HIS167     -0.2867
     61  CB        50.7430  -31.9190   10.4200 C.3   167  HIS167      0.0745
     62  CG        51.4860  -30.9420    9.5150 C.ar  167  HIS167      0.0817
     63  ND1       50.8290  -30.1650    8.5340 N.ar  167  HIS167     -0.2268
     64  CD2       52.8160  -30.5880    9.4970 C.ar  167  HIS167      0.1154
     65  CE1       51.7640  -29.3950    7.9710 C.ar  167  HIS167      0.1986
     66  NE2       52.9630  -29.6280    8.5220 N.ar  167  HIS167     -0.2212
     67  N         51.3590  -36.5760    5.5350 N.3   196  HIS196     -0.1241
     68  CA        52.1960  -35.8430    4.6000 C.3   196  HIS196      0.1621
     69  C         53.3710  -36.6990    4.3160 C.2   196  HIS196      0.2264
     70  O         54.4690  -36.2180    4.0760 O.2   196  HIS196     -0.2867
     71  CB        52.6920  -34.5000    5.1770 C.3   196  HIS196      0.0745
     72  CG        51.5170  -33.6880    5.6440 C.ar  196  HIS196      0.0817
     73  ND1       50.2620  -33.8240    5.0450 N.ar  196  HIS196     -0.2268
     74  CD2       51.4130  -32.7550    6.6540 C.ar  196  HIS196      0.1154
     75  CE1       49.4540  -32.9780    5.6710 C.ar  196  HIS196      0.1986
     76  NE2       50.1190  -32.3120    6.6470 N.ar  196  HIS196     -0.2212
     77  N         49.6230  -35.6380    0.0650 N.3   220  HIS220     -0.1241
     78  CA        50.0000  -34.4120   -0.6100 C.3   220  HIS220      0.1621
     79  C         50.1400  -34.6870   -2.1050 C.2   220  HIS220      0.2264
     80  O         50.8740  -34.0120   -2.8160 O.2   220  HIS220     -0.2867
     81  CB        51.3320  -33.9160    0.0040 C.3   220  HIS220      0.0745
     82  CG        51.0660  -32.9780    1.1350 C.ar  220  HIS220      0.0817
     83  ND1       52.0880  -32.3550    1.8330 N.ar  220  HIS220     -0.2268
     84  CD2       49.8950  -32.5460    1.6590 C.ar  220  HIS220      0.1154
     85  CE1       51.5410  -31.5650    2.7470 C.ar  220  HIS220      0.1986
     86  NE2       50.2310  -31.6620    2.6860 N.ar  220  HIS220     -0.2212
     87  N         49.9730  -31.9000   -4.6740 N.3   223  HIS223     -0.1241
     88  CA        50.7870  -30.7180   -4.3740 C.3   223  HIS223      0.1621
     89  C         52.0640  -30.6850   -5.1820 C.2   223  HIS223      0.2264
     90  O         53.0290  -31.4500   -4.9810 O.2   223  HIS223     -0.2867
     91  CB        51.2130  -30.6820   -2.8970 C.3   223  HIS223      0.0745
     92  CG        50.0690  -30.4490   -1.9670 C.ar  223  HIS223      0.0817
     93  ND1       50.1750  -29.5630   -0.8970 N.ar  223  HIS223     -0.2268
     94  CD2       48.8080  -30.9930   -1.9720 C.ar  223  HIS223      0.1154
     95  CE1       48.9690  -29.5940   -0.2940 C.ar  223  HIS223      0.1986
     96  NE2       48.1420  -30.4530   -0.9130 N.ar  223  HIS223     -0.2212
     97  N         55.6600  -23.7430   -0.6510 N.3   237  LEU237     -0.1231
     98  CA        54.5180  -24.4450   -0.1230 C.3   237  LEU237      0.1693
     99  C         54.2860  -25.8410   -0.6880 C.2   237  LEU237      0.2591
    100  O         54.1810  -26.8050    0.0660 O.2   237  LEU237     -0.2718
    101  CB        53.2110  -23.6090   -0.1740 C.3   237  LEU237      0.0284
    102  CG        52.0360  -24.2930    0.5370 C.3   237  LEU237      0.0019
    103  CD1       51.8770  -23.7200    1.9220 C.3   237  LEU237      0.0001
    104  CD2       50.7420  -24.1200   -0.2490 C.3   237  LEU237      0.0001
    105  N         54.1920  -25.9280   -2.0230 N.am  238  LEU238     -0.1980
    106  CA        53.9110  -27.1710   -2.7670 C.3   238  LEU238      0.1596
    107  C         55.1000  -28.0780   -3.1270 C.2   238  LEU238      0.2287
    108  O         54.9230  -29.2930   -3.2980 O.2   238  LEU238     -0.2864
    109  CB        53.1190  -26.8600   -4.0620 C.3   238  LEU238      0.0297
    110  CG        51.8560  -26.0740   -3.7650 C.3   238  LEU238      0.0022
    111  CD1       51.2330  -25.5860   -5.0640 C.3   238  LEU238      0.0001
    112  CD2       50.8770  -26.9600   -3.0110 C.3   238  LEU238      0.0001
    113  N         44.6140  -33.2000    0.8840 N.3   267  ASP267     -0.1225
    114  CA        45.0030  -32.1230    1.7730 C.3   267  ASP267      0.1805
    115  C         44.5780  -30.8150    1.0820 C.2   267  ASP267      0.2598
    116  O         45.2760  -29.7950    1.0410 O.2   267  ASP267     -0.2718
    117  CB        46.5000  -32.1300    2.3050 C.3   267  ASP267      0.1424
    118  CG        46.7840  -31.0860    3.4090 C.2   267  ASP267      0.3668
    119  OD1       45.7370  -30.7180    4.0990 O.co2 267  ASP267     -0.2456
    120  OD2       47.8680  -30.6120    3.6490 O.co2 267  ASP267     -0.2456
    121  N         43.3870  -30.8330    0.5040 N.am  268  TRP268     -0.1962
    122  CA        42.9150  -29.6340   -0.1860 C.3   268  TRP268      0.1771
    123  C         42.1060  -28.6870    0.7370 C.2   268  TRP268      0.2619
    124  O         41.9120  -28.8970    1.9390 O.2   268  TRP268     -0.2715
    125  CB        42.0590  -30.0670   -1.4350 C.3   268  TRP268      0.0590
    126  CG        42.1800  -29.1110   -2.5760 C.ar  268  TRP268      0.0006
    127  CD1       41.1860  -28.3680   -3.1420 C.ar  268  TRP268      0.0946
    128  CD2       43.3880  -28.7400   -3.2580 C.ar  268  TRP268      0.0152
    129  NE1       41.6970  -27.5460   -4.1360 N.ar  268  TRP268     -0.2442
    130  CE2       43.0400  -27.7610   -4.2450 C.ar  268  TRP268      0.0810
    131  CE3       44.7050  -29.1570   -3.1300 C.ar  268  TRP268      0.0012
    132  CZ2       43.9820  -27.2050   -5.1030 C.ar  268  TRP268      0.0191
    133  CZ3       45.6460  -28.6240   -3.9860 C.ar  268  TRP268      0.0001
    134  CH2       45.2930  -27.6610   -4.9400 C.ar  268  TRP268      0.0015
    135  N         41.6150  -27.6160    0.1760 N.am  269  LEU269     -0.1977
    136  CA        40.8070  -26.6370    0.9080 C.3   269  LEU269      0.1596
    137  C         40.1510  -25.6790   -0.0660 C.2   269  LEU269      0.2287
    138  O         40.5680  -25.5940   -1.2440 O.2   269  LEU269     -0.2864
    139  CB        41.6240  -25.8550    2.0140 C.3   269  LEU269      0.0297
    140  CG        43.1400  -25.7010    1.7560 C.3   269  LEU269      0.0022
    141  CD1       43.4100  -24.8910    0.4860 C.3   269  LEU269      0.0001
    142  CD2       43.7940  -24.9980    2.9390 C.3   269  LEU269      0.0001
    143  N         41.8920  -20.2140    2.2980 N.3   272  PHE272     -0.1241
    144  CA        43.1650  -20.4010    2.9900 C.3   272  PHE272      0.1605
    145  C         43.7020  -19.0610    3.4320 C.2   272  PHE272      0.2264
    146  O         44.3550  -18.3530    2.6440 O.2   272  PHE272     -0.2867
    147  CB        44.0390  -21.0020    1.8610 C.3   272  PHE272      0.0534
    148  CG        45.3420  -21.5950    2.2850 C.ar  272  PHE272     -0.0203
    149  CD1       45.7210  -21.5380    3.6230 C.ar  272  PHE272     -0.0042
    150  CD2       46.1810  -22.2190    1.3550 C.ar  272  PHE272     -0.0042
    151  CE1       46.9300  -22.0970    4.0290 C.ar  272  PHE272     -0.0003
    152  CE2       47.3820  -22.8160    1.7490 C.ar  272  PHE272     -0.0003
    153  CZ        47.7510  -22.7370    3.0920 C.ar  272  PHE272     -0.0000
    154  N         45.5870  -18.5790    6.2440 N.3   274  SER274     -0.1202
    155  CA        46.8080  -18.7550    6.9650 C.3   274  SER274      0.2020
    156  C         48.0290  -18.8080    6.0490 C.2   274  SER274      0.2618
    157  O         49.0510  -19.3670    6.4100 O.2   274  SER274     -0.2717
    158  CB        46.7160  -19.9450    7.8760 C.3   274  SER274      0.2103
    159  OG        46.3480  -21.0310    7.0510 O.3   274  SER274     -0.2182
    160  N         47.9410  -18.2150    4.8550 N.am  275  TYR275     -0.1975
    161  CA        49.1010  -18.1770    3.9480 C.3   275  TYR275      0.1639
    162  C         49.0950  -16.8590    3.2330 C.2   275  TYR275      0.2290
    163  O         48.2850  -15.9920    3.5980 O.2   275  TYR275     -0.2864
    164  CB        49.2370  -19.3600    2.9530 C.3   275  TYR275      0.0560
    165  CG        50.6800  -19.6090    2.4970 C.ar  275  TYR275     -0.0198
    166  CD1       51.7570  -19.7520    3.3750 C.ar  275  TYR275     -0.0009
    167  CD2       50.9680  -19.6930    1.1370 C.ar  275  TYR275     -0.0009
    168  CE1       53.0570  -19.9860    2.9280 C.ar  275  TYR275      0.0417
    169  CE2       52.2660  -19.9050    0.6710 C.ar  275  TYR275      0.0417
    170  CZ        53.3220  -20.0790    1.5580 C.ar  275  TYR275      0.1957
    171  OH        54.6040  -20.3090    1.0620 O.3   275  TYR275     -0.2866
    172  N         46.5000  -22.2870   -6.3910 N.3   283  MET283     -0.1245
    173  CA        46.1640  -23.6520   -6.1570 C.3   283  MET283      0.1570
    174  C         45.1210  -24.2260   -7.0290 C.2   283  MET283      0.2261
    175  O         45.1710  -25.3900   -7.4370 O.2   283  MET283     -0.2867
    176  CB        45.8930  -23.9030   -4.6940 C.3   283  MET283      0.0387
    177  CG        47.1830  -23.9450   -3.8950 C.3   283  MET283      0.0595
    178  SD        46.6850  -24.2210   -2.2270 S.3   283  MET283     -0.1393
    179  CE        48.0760  -23.4410   -1.3810 C.3   283  MET283      0.0692
@<TRIPOS>BOND
     1   175   174    2
     2   174   173    1
     3   172   173    1
     4   173   176    1
     5    89    90    2
     6    89    88    1
     7   132   134   ar
     8   132   130   ar
     9   111   110    1
    10   134   133   ar
    11   176   177    1
    12    87    88    1
    13    88    91    1
    14   130   129   ar
    15   130   128   ar
    16   129   127   ar
    17   109   110    1
    18   109   106    1
    19   133   131   ar
    20   177   178    1
    21   110   112    1
    22   108   107    2
    23   128   131   ar
    24   128   126   ar
    25   127   126   ar
    26   107   106    1
    27    91    92    1
    28    80    79    2
    29   106   105    1
    30   126   125    1
    31   178   179    1
    32    79    78    1
    33   105    99   am
    34    94    92   ar
    35    94    96   ar
    36    92    93   ar
    37   125   122    1
    38   138   137    2
    39    96    95   ar
    40    93    95   ar
    41    99    98    1
    42    99   100    2
    43    97    98    1
    44    78    81    1
    45    78    77    1
    46   104   102    1
    47   122   121    1
    48   122   123    1
    49   101    98    1
    50   101   102    1
    51   137   136    1
    52    81    82    1
    53   135   123   am
    54   135   136    1
    55   141   140    1
    56   121   115   am
    57   102   103    1
    58   169   167   ar
    59   169   170   ar
    60   123   124    2
    61   113   114    1
    62   136   139    1
    63   116   115    2
    64   171   170    1
    65   115   114    1
    66    82    84   ar
    67    82    83   ar
    68   167   165   ar
    69   150   152   ar
    70   150   148   ar
    71   170   168   ar
    72    84    86   ar
    73   152   153   ar
    74   140   139    1
    75   140   142    1
    76   114   117    1
    77    83    85   ar
    78   147   148    1
    79   147   144    1
    80   148   149   ar
    81   143   144    1
    82   117   118    1
    83   165   164    1
    84   165   166   ar
    85   146   145    2
    86    86    85   ar
    87     4     3    2
    88   168   166   ar
    89   164   161    1
    90   144   145    1
    91   153   151   ar
    92   162   163    2
    93   162   161    1
    94   118   120   ar
    95   118   119   ar
    96   149   151   ar
    97   161   160    1
    98    70    69    2
    99     3     2    1
   100     1     2    1
   101    69    68    1
   102    68    71    1
   103    68    67    1
   104   160   156   am
   105     2     5    1
   106    73    72   ar
   107    73    75   ar
   108    71    72    1
   109     5     6    1
   110     8     6   ar
   111     8    10   ar
   112    11    12    1
   113    72    74   ar
   114    75    76   ar
   115     6     7   ar
   116    14    13    2
   117   156   157    2
   118   156   155    1
   119   154   155    1
   120    12    13    1
   121    10     9   ar
   122    76    74   ar
   123   155   158    1
   124   159   158    1
   125     7     9   ar
   126    65    66   ar
   127    65    63   ar
   128    66    64   ar
   129    63    62   ar
   130    64    62   ar
   131    62    61    1
   132    34    36   ar
   133    34    32   ar
   134    21    19    1
   135    47    45   ar
   136    47    46   ar
   137    36    35   ar
   138    58    61    1
   139    58    59    1
   140    58    57    1
   141    31    32   ar
   142    31    29   ar
   143    18    17    2
   144    32    30   ar
   145    45    43   ar
   146    59    60    2
   147    56    55    1
   148    46    44   ar
   149    22    20    1
   150    35    33   ar
   151    20    19    1
   152    19    16    1
   153    29    28   ar
   154    55    54    1
   155    17    16    1
   156    30    33   ar
   157    30    28   ar
   158    43    42   ar
   159    16    15    1
   160    44    42   ar
   161    54    53    1
   162    28    27    1
   163    42    41    1
   164    53    52    1
   165    27    24    1
   166    52    49    1
   167    41    38    1
   168    37    38    1
   169    37    25   am
   170    49    50    1
   171    49    48    1
   172    24    25    1
   173    24    23    1
   174    38    39    1
   175    39    40    2
   176    25    26    2
   177    50    51    2
