@<TRIPOS>MOLECULE
tmp/1dppC00.pdb
 132 132 0 0 0
SMALL
GASTEIGER

@<TRIPOS>ATOM
      1  N          0.7880  144.1860   71.3110 N.3    20  THR20      -0.1203
      2  CA        -0.0300  145.3820   71.1810 C.3    20  THR20       0.1994
      3  C         -1.3540  145.3670   71.9260 C.2    20  THR20       0.2619
      4  O         -1.9390  146.4290   72.1370 O.2    20  THR20      -0.2717
      5  CB        -0.3480  145.6640   69.7030 C.3    20  THR20       0.1784
      6  OG1       -0.7480  144.4460   69.0650 O.3    20  THR20      -0.2211
      7  CG2        0.8560  146.2130   68.9880 C.3    20  THR20       0.0376
      8  N         -1.8380  144.1950   72.3280 N.am   21  SER21      -0.1937
      9  CA        -3.1280  144.1410   73.0080 C.3    21  SER21       0.2055
     10  C         -3.1000  144.5520   74.4630 C.2    21  SER21       0.2643
     11  O         -2.1200  144.3260   75.1710 O.2    21  SER21      -0.2714
     12  CB        -3.7600  142.7600   72.8950 C.3    21  SER21       0.2130
     13  OG        -3.3470  141.9210   73.9520 O.3    21  SER21      -0.2179
     14  N         -4.2120  145.1100   74.9170 N.am   22  GLY22      -0.1954
     15  CA        -4.3210  145.5270   76.2950 C.3    22  GLY22       0.1869
     16  C         -4.3000  144.3030   77.1750 C.2    22  GLY22       0.2309
     17  O         -3.7190  144.3270   78.2540 O.2    22  GLY22      -0.2863
     18  N          5.0960  148.2720   67.8510 N.3   114  TYR114     -0.1241
     19  CA         4.9300  149.6980   68.1440 C.3   114  TYR114      0.1605
     20  C          6.1380  150.5150   67.6980 C.2   114  TYR114      0.2264
     21  O          5.9980  151.4590   66.9360 O.2   114  TYR114     -0.2867
     22  CB         4.7030  149.9430   69.6380 C.3   114  TYR114      0.0534
     23  CG         3.2530  150.0810   70.0840 C.ar  114  TYR114     -0.0201
     24  CD1        2.5810  151.2910   69.9800 C.ar  114  TYR114     -0.0009
     25  CD2        2.5730  149.0080   70.6500 C.ar  114  TYR114     -0.0009
     26  CE1        1.2850  151.4210   70.4220 C.ar  114  TYR114      0.0417
     27  CE2        1.2850  149.1350   71.0910 C.ar  114  TYR114      0.0417
     28  CZ         0.6470  150.3360   70.9760 C.ar  114  TYR114      0.1957
     29  OH        -0.6480  150.4300   71.4300 O.3   114  TYR114     -0.2866
     30  N        -13.8400  143.2720   73.6340 N.3   355  ARG355     -0.1231
     31  CA       -12.8880  144.3620   73.6340 C.3   355  ARG355      0.1679
     32  C        -13.6340  145.6200   74.0300 C.2   355  ARG355      0.2434
     33  O        -14.8430  145.7410   73.8090 O.2   355  ARG355     -0.2733
     34  CB       -12.2610  144.5330   72.2480 C.3   355  ARG355      0.0321
     35  CG       -11.4520  143.3430   71.7810 C.3   355  ARG355      0.0489
     36  CD       -10.0490  143.3400   72.3500 C.3   355  ARG355      0.2205
     37  NE       -10.0130  143.2300   73.8030 N.pl3 355  ARG355     -0.0865
     38  CZ        -8.9960  143.6610   74.5430 C.cat 355  ARG355      0.5346
     39  NH1       -7.9440  144.2200   73.9670 N.pl3 355  ARG355      0.1354
     40  NH2       -9.0410  143.5840   75.8690 N.pl3 355  ARG355      0.1354
     41  N        -12.9240  146.5730   74.6430 N.am  356  PRO356     -0.2718
     42  CA       -13.5210  147.8320   75.0700 C.3   356  PRO356      0.1535
     43  C        -14.3020  148.5210   73.9610 C.2   356  PRO356      0.2598
     44  O        -15.2850  149.2120   74.2270 O.2   356  PRO356     -0.2715
     45  CB       -12.3050  148.6590   75.4940 C.3   356  PRO356      0.0310
     46  CG       -11.1430  147.9820   74.8320 C.3   356  PRO356      0.0237
     47  CD       -11.4940  146.5440   74.9680 C.3   356  PRO356      0.0939
     48  N        -13.8710  148.3280   72.7200 N.am  357  TYR357     -0.1974
     49  CA       -14.5340  148.9510   71.5800 C.3   357  TYR357      0.1639
     50  C        -15.4960  148.0360   70.8370 C.2   357  TYR357      0.2290
     51  O        -16.1770  148.4870   69.9300 O.2   357  TYR357     -0.2864
     52  CB       -13.4970  149.5000   70.6000 C.3   357  TYR357      0.0560
     53  CG       -12.4090  148.5050   70.2780 C.ar  357  TYR357     -0.0198
     54  CD1      -12.6120  147.5170   69.3360 C.ar  357  TYR357     -0.0009
     55  CD2      -11.2060  148.5100   70.9680 C.ar  357  TYR357     -0.0009
     56  CE1      -11.6590  146.5620   69.0940 C.ar  357  TYR357      0.0417
     57  CE2      -10.2450  147.5540   70.7240 C.ar  357  TYR357      0.0417
     58  CZ       -10.4860  146.5870   69.7890 C.ar  357  TYR357      0.1957
     59  OH        -9.5610  145.6270   69.5270 O.3   357  TYR357     -0.2866
     60  N         -7.4390  134.8300   70.2380 N.3   386  TRP386     -0.1241
     61  CA        -7.0080  136.2310   70.3430 C.3   386  TRP386      0.1605
     62  C         -5.5550  136.4930   69.9340 C.2   386  TRP386      0.2264
     63  O         -5.2870  137.3230   69.0740 O.2   386  TRP386     -0.2867
     64  CB        -7.2530  136.7180   71.7740 C.3   386  TRP386      0.0550
     65  CG        -6.9670  138.1760   72.0490 C.ar  386  TRP386      0.0003
     66  CD1       -6.4350  138.6980   73.2010 C.ar  386  TRP386      0.0946
     67  CD2       -7.2390  139.2950   71.1940 C.ar  386  TRP386      0.0152
     68  NE1       -6.3720  140.0660   73.1130 N.ar  386  TRP386     -0.2442
     69  CE2       -6.8600  140.4580   71.8940 C.ar  386  TRP386      0.0810
     70  CE3       -7.7730  139.4270   69.9120 C.ar  386  TRP386      0.0012
     71  CZ2       -6.9960  141.7270   71.3560 C.ar  386  TRP386      0.0191
     72  CZ3       -7.9080  140.6910   69.3810 C.ar  386  TRP386      0.0001
     73  CH2       -7.5230  141.8230   70.1010 C.ar  386  TRP386      0.0015
     74  N         -4.1630  138.2500   66.2350 N.3   390  LEU390     -0.1245
     75  CA        -3.3320  139.4280   66.0460 C.3   390  LEU390      0.1561
     76  C         -2.0820  139.1100   65.2420 C.2   390  LEU390      0.2260
     77  O         -1.7430  139.8420   64.3120 O.2   390  LEU390     -0.2867
     78  CB        -2.9480  140.0240   67.3890 C.3   390  LEU390      0.0270
     79  CG        -4.1280  140.5950   68.1550 C.3   390  LEU390      0.0019
     80  CD1       -3.6790  141.0910   69.5020 C.3   390  LEU390      0.0001
     81  CD2       -4.7360  141.7080   67.3460 C.3   390  LEU390      0.0001
     82  N        -11.2050  145.2930   64.1910 N.3   403  MET403     -0.1230
     83  CA       -10.1340  145.8390   65.0100 C.3   403  MET403      0.1702
     84  C        -10.6310  147.0460   65.7950 C.2   403  MET403      0.2593
     85  O        -11.8000  147.4420   65.6670 O.2   403  MET403     -0.2718
     86  CB        -8.9900  146.2490   64.1110 C.3   403  MET403      0.0401
     87  CG        -7.6420  146.0350   64.7010 C.3   403  MET403      0.0596
     88  SD        -6.4950  146.5360   63.4500 S.3   403  MET403     -0.1393
     89  CE        -5.7260  147.9540   64.2290 C.3   403  MET403      0.0692
     90  N         -9.7570  147.6220   66.6120 N.am  404  GLY404     -0.1942
     91  CA       -10.1350  148.7840   67.3900 C.3   404  GLY404      0.2014
     92  C         -8.9490  149.3480   68.1310 C.2   404  GLY404      0.2639
     93  O         -7.8710  148.7800   68.0640 O.2   404  GLY404     -0.2714
     94  N         -9.1450  150.4090   68.9000 N.am  405  TRP405     -0.1959
     95  CA        -8.0250  151.0130   69.6010 C.3   405  TRP405      0.1771
     96  C         -8.4970  151.7980   70.8050 C.2   405  TRP405      0.2620
     97  O         -9.6480  152.2230   70.8700 O.2   405  TRP405     -0.2715
     98  CB        -7.3330  151.9800   68.6530 C.3   405  TRP405      0.0590
     99  CG        -5.9580  152.4050   69.0270 C.ar  405  TRP405      0.0006
    100  CD1       -5.5530  153.6660   69.3610 C.ar  405  TRP405      0.0946
    101  CD2       -4.7770  151.6130   68.9490 C.ar  405  TRP405      0.0152
    102  NE1       -4.1880  153.7090   69.4720 N.ar  405  TRP405     -0.2442
    103  CE2       -3.6870  152.4620   69.2230 C.ar  405  TRP405      0.0810
    104  CE3       -4.5290  150.2720   68.6630 C.ar  405  TRP405      0.0012
    105  CZ2       -2.3820  152.0100   69.2160 C.ar  405  TRP405      0.0191
    106  CZ3       -3.2350  149.8280   68.6560 C.ar  405  TRP405      0.0001
    107  CH2       -2.1750  150.6940   68.9290 C.ar  405  TRP405      0.0015
    108  N         -7.5770  152.0180   71.7320 N.am  406  THR406     -0.1951
    109  CA        -7.8230  152.7970   72.9350 C.3   406  THR406      0.1897
    110  C         -6.5650  153.6450   73.0050 C.2   406  THR406      0.2313
    111  O         -5.4610  153.1070   72.9040 O.2   406  THR406     -0.2863
    112  CB        -7.8650  151.8970   74.1380 C.3   406  THR406      0.1794
    113  OG1       -8.7400  150.7950   73.8590 O.3   406  THR406     -0.2208
    114  CG2       -8.3460  152.6540   75.3480 C.3   406  THR406      0.0378
    115  N          0.7490  148.2540   63.2610 N.3   429  SER429     -0.1217
    116  CA        -0.6340  147.8550   63.4590 C.3   429  SER429      0.1889
    117  C         -1.6030  148.3100   62.3730 C.2   429  SER429      0.2288
    118  O         -2.8160  148.1950   62.5270 O.2   429  SER429     -0.2866
    119  CB        -1.1170  148.3460   64.8230 C.3   429  SER429      0.2089
    120  OG        -0.2160  147.9890   65.8630 O.3   429  SER429     -0.2183
    121  N         -3.3280  147.3100   59.9970 N.3   431  TYR431     -0.1241
    122  CA        -3.8100  146.0830   59.3850 C.3   431  TYR431      0.1605
    123  C         -4.5460  146.2770   58.0770 C.2   431  TYR431      0.2264
    124  O         -4.9580  145.3090   57.4530 O.2   431  TYR431     -0.2867
    125  CB        -4.6340  145.2760   60.3790 C.3   431  TYR431      0.0534
    126  CG        -3.8310  144.8720   61.5960 C.ar  431  TYR431     -0.0201
    127  CD1       -2.4510  144.8940   61.5730 C.ar  431  TYR431     -0.0009
    128  CD2       -4.4480  144.5100   62.7700 C.ar  431  TYR431     -0.0009
    129  CE1       -1.7170  144.5750   62.6850 C.ar  431  TYR431      0.0417
    130  CE2       -3.7210  144.1930   63.8880 C.ar  431  TYR431      0.0417
    131  CZ        -2.3550  144.2250   63.8420 C.ar  431  TYR431      0.1957
    132  OH        -1.6170  143.9210   64.9650 O.3   431  TYR431     -0.2866
@<TRIPOS>BOND
     1   124   123    2
     2   123   122    1
     3   122   121    1
     4   122   125    1
     5   125   126    1
     6   127   126   ar
     7   127   129   ar
     8   126   128   ar
     9   117   118    2
    10   117   116    1
    11   129   131   ar
    12   128   130   ar
    13   115   116    1
    14    88    89    1
    15    88    87    1
    16   116   119    1
    17   131   130   ar
    18   131   132    1
    19    86    87    1
    20    86    83    1
    21    82    83    1
    22    77    76    2
    23   119   120    1
    24    83    84    1
    25    76    75    1
    26    85    84    2
    27    84    90   am
    28    75    74    1
    29    75    78    1
    30    90    91    1
    31    21    20    2
    32    81    79    1
    33    78    79    1
    34    91    92    1
    35    20    19    1
    36    18    19    1
    37    93    92    2
    38    92    94   am
    39    19    22    1
    40    79    80    1
    41    98    99    1
    42    98    95    1
    43   106   104   ar
    44   106   107   ar
    45   104   101   ar
    46    94    95    1
    47   107   105   ar
    48   101    99   ar
    49   101   103   ar
    50     7     5    1
    51    99   100   ar
    52     6     5    1
    53    63    62    2
    54    56    54   ar
    55    56    58   ar
    56   105   103   ar
    57   103   102   ar
    58    54    53   ar
    59   100   102   ar
    60    72    70   ar
    61    72    73   ar
    62    59    58    1
    63    95    96    1
    64    22    23    1
    65     5     2    1
    66    58    57   ar
    67    70    67   ar
    68    51    50    2
    69    62    61    1
    70    24    23   ar
    71    24    26   ar
    72    23    25   ar
    73    73    71   ar
    74    60    61    1
    75    53    52    1
    76    53    55   ar
    77    61    64    1
    78    26    28   ar
    79    52    49    1
    80    25    27   ar
    81    57    55   ar
    82    96    97    2
    83    96   108   am
    84    50    49    1
    85    28    27   ar
    86    28    29    1
    87     2     1    1
    88     2     3    1
    89    67    69   ar
    90    67    65   ar
    91    71    69   ar
    92    49    48    1
    93   108   109    1
    94    64    65    1
    95    35    34    1
    96    35    36    1
    97    69    68   ar
    98     3     4    2
    99     3     8   am
   100    65    66   ar
   101    34    31    1
   102     8     9    1
   103    36    37    1
   104    48    43   am
   105    12     9    1
   106    12    13    1
   107   111   110    2
   108   109   110    1
   109   109   112    1
   110     9    10    1
   111    68    66   ar
   112    30    31    1
   113    31    32    1
   114    37    38    2
   115    33    32    2
   116   113   112    1
   117    43    44    2
   118    43    42    1
   119    39    38    1
   120    32    41   am
   121   112   114    1
   122    10    14   am
   123    10    11    2
   124    38    40    1
   125    41    47    1
   126    41    42    1
   127    46    47    1
   128    46    45    1
   129    14    15    1
   130    42    45    1
   131    15    16    1
   132    16    17    2
