@<TRIPOS>MOLECULE
tmp/1dq8C04.pdb
 77 71 0 0 0
SMALL
GASTEIGER

@<TRIPOS>ATOM
      1  N         33.6130   10.9440  -42.3790 N.3   192  MET192     -0.1245
      2  CA        33.2050   11.2070  -41.0000 C.3   192  MET192      0.1570
      3  C         32.1970   10.0920  -40.6860 C.2   192  MET192      0.2261
      4  O         32.0770    9.6330  -39.5440 O.2   192  MET192     -0.2867
      5  CB        32.6230   12.6200  -40.8790 C.3   192  MET192      0.0387
      6  CG        32.0800   12.9900  -39.5160 C.3   192  MET192      0.0595
      7  SD        30.2850   13.0270  -39.6460 S.3   192  MET192     -0.1393
      8  CE        29.8620   11.7610  -38.6480 C.3   192  MET192      0.0692
      9  N         25.7830   16.3220  -32.3500 N.3   228  LYS228     -0.1245
     10  CA        25.6080   17.7730  -32.2480 C.3   228  LYS228      0.1561
     11  C         24.8700   18.3800  -31.0470 C.2   228  LYS228      0.2260
     12  O         24.2810   19.4620  -31.1550 O.2   228  LYS228     -0.2867
     13  CB        25.0190   18.3070  -33.5560 C.3   228  LYS228      0.0271
     14  CG        25.9100   18.0630  -34.7730 C.3   228  LYS228      0.0035
     15  CD        25.1800   18.4460  -36.0870 C.3   228  LYS228      0.0206
     16  CE        26.0450   18.1350  -37.3250 C.3   228  LYS228      0.1093
     17  NZ        25.3150   18.3170  -38.6080 N.3   228  LYS228     -0.1314
     18  N         36.3120   21.8150  -44.9160 N.3   302  GLY302     -0.1210
     19  CA        35.0640   21.2200  -45.3390 C.3   302  GLY302      0.1956
     20  C         34.3820   20.2870  -44.3830 C.2   302  GLY302      0.2612
     21  O         33.5920   19.4450  -44.8060 O.2   302  GLY302     -0.2717
     22  N         34.7200   20.3960  -43.1040 N.am  303  GLN303     -0.1965
     23  CA        34.0880   19.5790  -42.0750 C.3   303  GLN303      0.1733
     24  C         32.7160   20.1660  -41.7340 C.2   303  GLN303      0.2616
     25  O         32.2920   21.1640  -42.3160 O.2   303  GLN303     -0.2715
     26  CB        34.9560   19.5450  -40.8080 C.3   303  GLN303      0.0408
     27  CG        36.3700   19.0830  -41.0510 C.3   303  GLN303      0.0908
     28  CD        36.4320   17.7060  -41.6980 C.2   303  GLN303      0.2608
     29  OE1       35.9570   16.7200  -41.1290 O.2   303  GLN303     -0.2717
     30  NE2       37.0360   17.6320  -42.8810 N.am  303  GLN303     -0.0878
     31  N         32.0130   19.5280  -40.8060 N.am  304  ASP304     -0.1971
     32  CA        30.7060   20.0160  -40.3980 C.3   304  ASP304      0.1709
     33  C         30.9560   20.8380  -39.1360 C.2   304  ASP304      0.2293
     34  O         31.0990   20.2820  -38.0460 O.2   304  ASP304     -0.2864
     35  CB        29.7700   18.8350  -40.1180 C.3   304  ASP304      0.1436
     36  CG        28.3270   19.2620  -39.8790 C.2   304  ASP304      0.3671
     37  OD1       28.1010   20.4240  -39.5040 O.co2 304  ASP304     -0.2456
     38  OD2       27.4150   18.4160  -40.0640 O.co2 304  ASP304     -0.2456
     39  N         29.4140   20.3150  -35.7250 N.3   307  GLN307     -0.1245
     40  CA        29.9370   19.2540  -34.8740 C.3   307  GLN307      0.1566
     41  C         30.9970   19.7430  -33.8910 C.2   307  GLN307      0.2260
     42  O         31.6390   18.9330  -33.2110 O.2   307  GLN307     -0.2867
     43  CB        30.4510   18.0810  -35.7090 C.3   307  GLN307      0.0367
     44  CG        29.3030   17.1810  -36.1450 C.3   307  GLN307      0.0905
     45  CD        29.7490   16.0210  -36.9730 C.2   307  GLN307      0.2608
     46  OE1       30.6930   16.1290  -37.7730 O.2   307  GLN307     -0.2717
     47  NE2       29.0680   14.8880  -36.8070 N.am  307  GLN307     -0.0878
     48  N         36.3990   13.9340  -41.1250 N.3   340  GLY340     -0.1225
     49  CA        36.5020   13.1300  -42.3310 C.3   340  GLY340      0.1811
     50  C         37.1670   13.8800  -43.4660 C.2   340  GLY340      0.2280
     51  O         37.2250   15.1110  -43.4620 O.2   340  GLY340     -0.2866
     52  N         36.5550   12.7930  -46.8960 N.3   342  VAL342     -0.1231
     53  CA        35.7940   12.4740  -48.1160 C.3   342  VAL342      0.1692
     54  C         34.3180   12.6610  -47.7900 C.2   342  VAL342      0.2593
     55  O         33.8780   12.2730  -46.7150 O.2   342  VAL342     -0.2718
     56  CB        35.9310   10.9870  -48.5520 C.3   342  VAL342      0.0266
     57  CG1       35.3870   10.8140  -49.9630 C.3   342  VAL342      0.0020
     58  CG2       37.3520   10.5200  -48.4850 C.3   342  VAL342      0.0020
     59  N         33.5460   13.2200  -48.7140 N.am  343  GLY343     -0.1942
     60  CA        32.1340   13.4060  -48.4460 C.3   343  GLY343      0.2014
     61  C         31.7920   14.7930  -47.9370 C.2   343  GLY343      0.2639
     62  O         32.6520   15.4940  -47.4080 O.2   343  GLY343     -0.2714
     63  N         30.5360   15.1880  -48.1330 N.am  344  GLY344     -0.1939
     64  CA        30.0560   16.4880  -47.7060 C.3   344  GLY344      0.2014
     65  C         30.8000   17.6770  -48.2760 C.2   344  GLY344      0.2639
     66  O         31.0510   17.7670  -49.4810 O.2   344  GLY344     -0.2714
     67  N         31.1820   18.5910  -47.3900 N.am  345  GLY345     -0.1939
     68  CA        31.9020   19.7760  -47.8060 C.3   345  GLY345      0.2014
     69  C         33.3070   19.5260  -48.3180 C.2   345  GLY345      0.2639
     70  O         33.8620   20.3950  -48.9930 O.2   345  GLY345     -0.2714
     71  N         33.8690   18.3420  -48.0630 N.am  346  THR346     -0.1950
     72  CA        35.2370   18.0560  -48.5060 C.3   346  THR346      0.1897
     73  C         35.3290   17.7370  -49.9840 C.2   346  THR346      0.2313
     74  O         36.4080   17.4420  -50.4860 O.2   346  THR346     -0.2863
     75  CB        35.9050   16.9050  -47.7260 C.3   346  THR346      0.1794
     76  OG1       35.2520   15.6620  -48.0280 O.3   346  THR346     -0.2208
     77  CG2       35.8420   17.1730  -46.2230 C.3   346  THR346      0.0378
@<TRIPOS>BOND
     1    74    73    2
     2    73    72    1
     3    57    56    1
     4    66    65    2
     5    70    69    2
     6    59    60    1
     7    59    54   am
     8    56    58    1
     9    56    53    1
    10    72    71    1
    11    72    75    1
    12    60    61    1
    13    69    71   am
    14    69    68    1
    15    65    64    1
    16    65    67   am
    17    63    61   am
    18    63    64    1
    19    53    54    1
    20    53    52    1
    21    76    75    1
    22    61    62    2
    23    68    67    1
    24    54    55    2
    25    75    77    1
    26    19    18    1
    27    19    20    1
    28    21    20    2
    29    20    22   am
    30    50    51    2
    31    50    49    1
    32    22    23    1
    33    30    28   am
    34     1     2    1
    35    49    48    1
    36    25    24    2
    37    23    24    1
    38    23    26    1
    39    24    31   am
    40    28    29    2
    41    28    27    1
    42    27    26    1
    43     2     5    1
    44     2     3    1
    45     5     6    1
    46    31    32    1
    47     3     4    2
    48    32    35    1
    49    32    33    1
    50    35    36    1
    51    38    36   ar
    52    36    37   ar
    53     7     6    1
    54     7     8    1
    55    33    34    2
    56    17    16    1
    57    46    45    2
    58    16    15    1
    59    45    47   am
    60    45    44    1
    61    44    43    1
    62    15    14    1
    63    39    40    1
    64    43    40    1
    65    40    41    1
    66    14    13    1
    67    41    42    2
    68    13    10    1
    69     9    10    1
    70    10    11    1
    71    12    11    2
