@<TRIPOS>MOLECULE
tmp/1dq9B00.pdb
 108 101 0 0 0
SMALL
GASTEIGER

@<TRIPOS>ATOM
      1  N         -7.3590    6.6190  -24.6080 N.3    18  PRO18      -0.2116
      2  CA        -7.2060    6.4900  -23.1520 C.3    18  PRO18       0.1372
      3  C         -5.8910    7.1610  -22.7240 C.2    18  PRO18       0.2244
      4  O         -4.8110    6.8340  -23.2380 O.2    18  PRO18      -0.2868
      5  CB        -7.2010    4.9810  -22.9430 C.3    18  PRO18       0.0268
      6  CG        -6.4570    4.5060  -24.1400 C.3    18  PRO18       0.0207
      7  CD        -7.0040    5.3520  -25.2810 C.3    18  PRO18       0.0892
      8  N         -3.6280    6.8350  -20.8400 N.3    20  TYR20      -0.1241
      9  CA        -2.4390    5.9970  -20.7630 C.3    20  TYR20       0.1605
     10  C         -1.9520    5.4510  -22.0860 C.2    20  TYR20       0.2264
     11  O         -1.3340    4.3850  -22.1200 O.2    20  TYR20      -0.2867
     12  CB        -2.6860    4.8300  -19.8150 C.3    20  TYR20       0.0534
     13  CG        -3.7810    3.8610  -20.2290 C.ar   20  TYR20      -0.0201
     14  CD1       -3.5160    2.7930  -21.1070 C.ar   20  TYR20      -0.0009
     15  CD2       -5.0600    3.9480  -19.6560 C.ar   20  TYR20      -0.0009
     16  CE1       -4.4930    1.8290  -21.3820 C.ar   20  TYR20       0.0417
     17  CE2       -6.0400    2.9970  -19.9310 C.ar   20  TYR20       0.0417
     18  CZ        -5.7470    1.9400  -20.7840 C.ar   20  TYR20       0.1957
     19  OH        -6.7040    0.9740  -20.9740 O.3    20  TYR20      -0.2866
     20  N          3.8240    3.5410  -16.1380 N.3    69  GLU69      -0.1231
     21  CA         2.6650    3.7030  -16.9920 C.3    69  GLU69       0.1699
     22  C          1.9840    4.9770  -16.5310 C.2    69  GLU69       0.2592
     23  O          2.2140    5.4260  -15.4190 O.2    69  GLU69      -0.2718
     24  CB         1.7060    2.5310  -16.8350 C.3    69  GLU69       0.0402
     25  CG         2.2830    1.1860  -17.2250 C.3    69  GLU69       0.1161
     26  CD         3.1800    0.5850  -16.1570 C.2    69  GLU69       0.3649
     27  OE1        2.7400    0.5200  -14.9800 O.co2  69  GLU69      -0.2457
     28  OE2        4.3170    0.1690  -16.4960 O.co2  69  GLU69      -0.2457
     29  N          1.1370    5.5530  -17.3780 N.am   70  ASN70      -0.1974
     30  CA         0.4460    6.7970  -17.0700 C.3    70  ASN70       0.1688
     31  C          1.3270    7.8760  -16.4620 C.2    70  ASN70       0.2292
     32  O          0.9110    8.5620  -15.5290 O.2    70  ASN70      -0.2864
     33  CB        -0.7130    6.5330  -16.1450 C.3    70  ASN70       0.1181
     34  CG        -2.0110    6.7180  -16.8360 C.2    70  ASN70       0.2629
     35  OD1       -2.1510    7.6390  -17.6380 O.2    70  ASN70      -0.2716
     36  ND2       -2.9820    5.8570  -16.5450 N.am   70  ASN70      -0.0877
     37  N         12.1030  -18.0880   -6.7690 N.3   131  ARG131     -0.1245
     38  CA        10.7150  -18.0090   -7.1880 C.3   131  ARG131      0.1563
     39  C         10.0410  -19.3040   -6.7150 C.2   131  ARG131      0.2260
     40  O         10.5110  -20.4050   -6.9830 O.2   131  ARG131     -0.2867
     41  CB        10.6220  -17.8610   -8.7060 C.3   131  ARG131      0.0307
     42  CG         9.2150  -17.6630   -9.2180 C.3   131  ARG131      0.0489
     43  CD         8.4890  -16.6000   -8.4190 C.3   131  ARG131      0.2205
     44  NE         8.6220  -15.2660   -8.9920 N.pl3 131  ARG131     -0.0865
     45  CZ         8.1370  -14.1550   -8.4300 C.cat 131  ARG131      0.5346
     46  NH1        7.4900  -14.1980   -7.2700 N.pl3 131  ARG131      0.1354
     47  NH2        8.2760  -12.9860   -9.0420 N.pl3 131  ARG131      0.1354
     48  N         14.5890  -11.1900  -10.8580 N.3   198  MET198     -0.1245
     49  CA        13.2080  -11.5540  -10.5650 C.3   198  MET198      0.1570
     50  C         12.5220  -11.9960  -11.8570 C.2   198  MET198      0.2261
     51  O         11.7790  -12.9720  -11.8650 O.2   198  MET198     -0.2867
     52  CB        12.4850  -10.3560   -9.9400 C.3   198  MET198      0.0387
     53  CG        11.1280  -10.6520   -9.3320 C.3   198  MET198      0.0595
     54  SD        11.1880  -11.6650   -7.8770 S.3   198  MET198     -0.1393
     55  CE        11.1940  -13.3360   -8.5910 C.3   198  MET198      0.0692
     56  N          2.6320  -18.8960  -10.5940 N.3   224  VAL224     -0.1231
     57  CA         4.1100  -18.9250  -10.6590 C.3   224  VAL224      0.1692
     58  C          4.7020  -18.4480   -9.3630 C.2   224  VAL224      0.2592
     59  O          5.8630  -18.7230   -9.0610 O.2   224  VAL224     -0.2718
     60  CB         4.7080  -18.0010  -11.7230 C.3   224  VAL224      0.0266
     61  CG1        4.8950  -18.7520  -13.0180 C.3   224  VAL224      0.0020
     62  CG2        3.8470  -16.7710  -11.8760 C.3   224  VAL224      0.0020
     63  N          3.9050  -17.6890   -8.6190 N.am  225  SER225     -0.1952
     64  CA         4.3270  -17.1750   -7.3370 C.3   225  SER225      0.1924
     65  C          3.2890  -17.4850   -6.3030 C.2   225  SER225      0.2314
     66  O          2.2180  -16.8860   -6.2830 O.2   225  SER225     -0.2863
     67  CB         4.5440  -15.6660   -7.3770 C.3   225  SER225      0.2116
     68  OG         4.7130  -15.1820   -6.0530 O.3   225  SER225     -0.2180
     69  N          3.9270  -17.1640   -3.0650 N.3   227  ASN227     -0.1240
     70  CA         4.5040  -16.5310   -1.8750 C.3   227  ASN227      0.1653
     71  C          5.5630  -17.3690   -1.1530 C.2   227  ASN227      0.2266
     72  O          5.8240  -17.1530    0.0250 O.2   227  ASN227     -0.2867
     73  CB         3.3870  -16.1350   -0.8850 C.3   227  ASN227      0.1155
     74  CG         2.7100  -14.8450   -1.2750 C.2   227  ASN227      0.2627
     75  OD1        2.8140  -14.4260   -2.4220 O.2   227  ASN227     -0.2716
     76  ND2        2.0090  -14.2140   -0.3390 N.am  227  ASN227     -0.0877
     77  N          8.6490  -17.5670   -2.3890 N.3   229  CYS229     -0.1235
     78  CA         9.9250  -17.0850   -2.9010 C.3   229  CYS229      0.1677
     79  C         10.8840  -16.6270   -1.7970 C.2   229  CYS229      0.2270
     80  O         12.0140  -17.1180   -1.7360 O.2   229  CYS229     -0.2867
     81  CB         9.7080  -15.9460   -3.8980 C.3   229  CYS229      0.0956
     82  SG         8.2700  -16.1390   -4.9170 S.3   229  CYS229     -0.0801
     83  N          8.6660  -12.9070   -2.2660 N.3   231  ASP231     -0.1225
     84  CA         8.9900  -11.5850   -2.7720 C.3   231  ASP231      0.1805
     85  C          8.1920  -10.4790   -2.0970 C.2   231  ASP231      0.2598
     86  O          6.9850  -10.5930   -1.9230 O.2   231  ASP231     -0.2718
     87  CB         8.7850  -11.5330   -4.2790 C.3   231  ASP231      0.1424
     88  CG         9.4930  -10.3640   -4.9160 C.2   231  ASP231      0.3668
     89  OD1       10.6910  -10.1760   -4.6130 O.co2 231  ASP231     -0.2456
     90  OD2        8.8670   -9.6380   -5.7240 O.co2 231  ASP231     -0.2456
     91  N          8.8980   -9.4210   -1.6930 N.am  232  LYS232     -0.1966
     92  CA         8.3320   -8.2360   -1.0460 C.3   232  LYS232      0.1728
     93  C          7.3910   -8.4100    0.1300 C.2   232  LYS232      0.2616
     94  O          6.5590   -7.5490    0.3870 O.2   232  LYS232     -0.2715
     95  CB         7.6740   -7.3710   -2.1000 C.3   232  LYS232      0.0311
     96  CG         8.6780   -6.8400   -3.0850 C.3   232  LYS232      0.0038
     97  CD         8.0150   -6.4580   -4.3840 C.3   232  LYS232      0.0206
     98  CE         9.0340   -5.8070   -5.3340 C.3   232  LYS232      0.1093
     99  NZ         8.4700   -5.6890   -6.7100 N.3   232  LYS232     -0.1314
    100  N          7.5130   -9.5280    0.8370 N.am  233  LYS233     -0.1977
    101  CA         6.7080   -9.7980    2.0370 C.3   233  LYS233      0.1596
    102  C          7.6380  -10.4030    3.1020 C.2   233  LYS233      0.2287
    103  O          8.5680  -11.1440    2.7780 O.2   233  LYS233     -0.2864
    104  CB         5.5660  -10.8010    1.7710 C.3   233  LYS233      0.0298
    105  CG         4.2920  -10.2410    1.1400 C.3   233  LYS233      0.0038
    106  CD         4.3500  -10.3080   -0.3700 C.3   233  LYS233      0.0206
    107  CE         4.3630  -11.7600   -0.8420 C.3   233  LYS233      0.1093
    108  NZ         4.6750  -11.9060   -2.2780 N.3   233  LYS233     -0.1314
@<TRIPOS>BOND
     1     7     1    1
     2     7     6    1
     3     1     2    1
     4     6     5    1
     5     4     3    2
     6     2     5    1
     7     2     3    1
     8    11    10    2
     9    10     9    1
    10    16    14   ar
    11    16    18   ar
    12    14    13   ar
    13    19    18    1
    14     8     9    1
    15    18    17   ar
    16     9    12    1
    17    13    12    1
    18    13    15   ar
    19    17    15   ar
    20    35    34    2
    21    29    30    1
    22    29    22   am
    23    25    24    1
    24    25    26    1
    25    30    31    1
    26    30    33    1
    27    21    24    1
    28    21    22    1
    29    21    20    1
    30    34    36   am
    31    34    33    1
    32    22    23    2
    33    28    26   ar
    34    31    32    2
    35    26    27   ar
    36    61    60    1
    37    62    60    1
    38    51    50    2
    39    50    49    1
    40    60    57    1
    41    48    49    1
    42    57    56    1
    43    57    58    1
    44    49    52    1
    45    52    53    1
    46    58    59    2
    47    58    63   am
    48    53    54    1
    49    42    41    1
    50    42    43    1
    51    47    45    1
    52    44    45    2
    53    44    43    1
    54    41    38    1
    55    63    64    1
    56    55    54    1
    57    45    46    1
    58    67    64    1
    59    67    68    1
    60    64    65    1
    61    38    37    1
    62    38    39    1
    63    40    39    2
    64    99    98    1
    65    65    66    2
    66    90    88   ar
    67    98    97    1
    68    82    81    1
    69    88    89   ar
    70    88    87    1
    71    97    96    1
    72    87    84    1
    73    81    78    1
    74    96    95    1
    75    69    70    1
    76    78    77    1
    77    78    79    1
    78    84    83    1
    79    84    85    1
    80    75    74    2
    81   108   107    1
    82    95    92    1
    83    85    86    2
    84    85    91   am
    85    70    71    1
    86    70    73    1
    87    79    80    2
    88    91    92    1
    89    74    73    1
    90    74    76   am
    91    71    72    2
    92    92    93    1
    93   107   106    1
    94   106   105    1
    95    93    94    2
    96    93   100   am
    97   100   101    1
    98   105   104    1
    99   104   101    1
   100   101   102    1
   101   103   102    2
