@<TRIPOS>MOLECULE
tmp/1dq9B01.pdb
 175 165 0 0 0
SMALL
GASTEIGER

@<TRIPOS>ATOM
      1  N         25.7550   12.0570   -0.0110 N.3    81  VAL81      -0.1245
      2  CA        26.8200   11.1080   -0.2190 C.3    81  VAL81       0.1561
      3  C         27.5160   10.8700    1.1150 C.2    81  VAL81       0.2260
      4  O         27.6500   11.7780    1.9300 O.2    81  VAL81      -0.2867
      5  CB        27.8040   11.6280   -1.2750 C.3    81  VAL81       0.0252
      6  CG1       28.4320   12.9130   -0.8080 C.3    81  VAL81       0.0019
      7  CG2       28.8730   10.5910   -1.5440 C.3    81  VAL81       0.0019
      8  N         15.2570   12.0170    4.7830 N.3   100  GLU100     -0.1231
      9  CA        15.3640   12.0030    6.2450 C.3   100  GLU100      0.1699
     10  C         16.6640   12.6510    6.7630 C.2   100  GLU100      0.2593
     11  O         17.7650   12.1510    6.5480 O.2   100  GLU100     -0.2718
     12  CB        15.2450   10.5630    6.7820 C.3   100  GLU100      0.0402
     13  CG        15.4900   10.4540    8.2990 C.3   100  GLU100      0.1161
     14  CD        15.2510    9.0540    8.8780 C.2   100  GLU100      0.3649
     15  OE1       15.2510    8.0850    8.0990 O.co2 100  GLU100     -0.2457
     16  OE2       15.0810    8.9170   10.1150 O.co2 100  GLU100     -0.2457
     17  N         16.5220   13.7710    7.4550 N.am  101  GLY101     -0.1942
     18  CA        17.6820   14.4580    7.9820 C.3   101  GLY101      0.2014
     19  C         18.5220   13.6500    8.9510 C.2   101  GLY101      0.2639
     20  O         17.9900   12.9320    9.8030 O.2   101  GLY101     -0.2714
     21  N         19.8390   13.7920    8.8190 N.am  102  CYS102     -0.1953
     22  CA        20.8230   13.1030    9.6430 C.3   102  CYS102      0.1843
     23  C         21.2040   11.7300    9.1350 C.2   102  CYS102      0.2625
     24  O         22.2760   11.2370    9.4770 O.2   102  CYS102     -0.2714
     25  CB        20.3530   12.9690   11.0830 C.3   102  CYS102      0.0997
     26  SG        20.0100   14.5520   11.8470 S.3   102  CYS102     -0.0797
     27  N         20.3510   11.1010    8.3250 N.am  103  LEU103     -0.1963
     28  CA        20.6620    9.7640    7.8000 C.3   103  LEU103      0.1728
     29  C         22.0090    9.7690    7.1070 C.2   103  LEU103      0.2616
     30  O         22.8640    8.9330    7.3910 O.2   103  LEU103     -0.2715
     31  CB        19.6010    9.2930    6.8080 C.3   103  LEU103      0.0311
     32  CG        19.8030    7.8710    6.2930 C.3   103  LEU103      0.0022
     33  CD1       19.8360    6.8960    7.4640 C.3   103  LEU103      0.0001
     34  CD2       18.6890    7.5340    5.3400 C.3   103  LEU103      0.0001
     35  N         22.2000   10.7110    6.1920 N.am  104  VAL104     -0.1963
     36  CA        23.4720   10.7970    5.4990 C.3   104  VAL104      0.1727
     37  C         24.5620   11.2120    6.4900 C.2   104  VAL104      0.2616
     38  O         25.6370   10.6110    6.5170 O.2   104  VAL104     -0.2715
     39  CB        23.4020   11.8100    4.3550 C.3   104  VAL104      0.0290
     40  CG1       24.6940   11.7890    3.5230 C.3   104  VAL104      0.0023
     41  CG2       22.2080   11.4870    3.5050 C.3   104  VAL104      0.0023
     42  N         24.2770   12.2230    7.3150 N.am  105  ALA105     -0.1963
     43  CA        25.2550   12.6870    8.2970 C.3   105  ALA105      0.1728
     44  C         25.7050   11.5260    9.1860 C.2   105  ALA105      0.2616
     45  O         26.9060   11.3290    9.4020 O.2   105  ALA105     -0.2715
     46  CB        24.6630   13.7760    9.1340 C.3   105  ALA105      0.0334
     47  N         24.7310   10.7550    9.6730 N.am  106  SER106     -0.1950
     48  CA        24.9830    9.6230   10.5420 C.3   106  SER106      0.1924
     49  C         25.7700    8.5250    9.8460 C.2   106  SER106      0.2314
     50  O         26.7240    7.9830   10.4200 O.2   106  SER106     -0.2863
     51  CB        23.6660    9.0500   11.0470 C.3   106  SER106      0.2116
     52  OG        23.8720    7.9450   11.9180 O.3   106  SER106     -0.2180
     53  N         27.6890    8.8690    7.4470 N.3   108  ASN108     -0.1225
     54  CA        29.0050    9.3980    7.2170 C.3   108  ASN108      0.1785
     55  C         29.8200    9.2010    8.5090 C.2   108  ASN108      0.2597
     56  O         30.8950    8.5880    8.5040 O.2   108  ASN108     -0.2718
     57  CB        28.8790   10.8660    6.8970 C.3   108  ASN108      0.1169
     58  CG        29.9320   11.3340    5.9510 C.2   108  ASN108      0.2627
     59  OD1       30.0530   12.5280    5.7010 O.2   108  ASN108     -0.2716
     60  ND2       30.7020   10.4000    5.4030 N.am  108  ASN108     -0.0877
     61  N         29.2900    9.7190    9.6170 N.am  109  ARG109     -0.1979
     62  CA        29.9510    9.5980   10.9060 C.3   109  ARG109      0.1597
     63  C         30.3110    8.1400   11.1510 C.2   109  ARG109      0.2287
     64  O         31.3510    7.8370   11.7410 O.2   109  ARG109     -0.2864
     65  CB        29.0380   10.0880   12.0220 C.3   109  ARG109      0.0334
     66  CG        29.6640   10.1030   13.4100 C.3   109  ARG109      0.0492
     67  CD        28.6900    9.4730   14.3710 C.3   109  ARG109      0.2205
     68  NE        28.5380   10.1640   15.6450 N.pl3 109  ARG109     -0.0865
     69  CZ        27.6080    9.8310   16.5350 C.cat 109  ARG109      0.5346
     70  NH1       26.7900    8.8350   16.2510 N.pl3 109  ARG109      0.1354
     71  NH2       27.4840   10.4650   17.7010 N.pl3 109  ARG109      0.1354
     72  N         33.2490    7.1340    9.0240 N.3   112  ARG112     -0.1245
     73  CA        34.4240    7.7460    9.6110 C.3   112  ARG112      0.1563
     74  C         35.0670    6.8220   10.6370 C.2   112  ARG112      0.2260
     75  O         36.2550    6.5170   10.5580 O.2   112  ARG112     -0.2867
     76  CB        34.0140    9.0660   10.2660 C.3   112  ARG112      0.0307
     77  CG        35.1460    9.8610   10.8550 C.3   112  ARG112      0.0489
     78  CD        36.2890   10.0240    9.8800 C.3   112  ARG112      0.2205
     79  NE        36.9490   11.3170   10.0500 N.pl3 112  ARG112     -0.0865
     80  CZ        38.2340   11.5470    9.7860 C.cat 112  ARG112      0.5346
     81  NH1       39.0150   10.5660    9.3470 N.pl3 112  ARG112      0.1354
     82  NH2       38.7310   12.7680    9.9350 N.pl3 112  ARG112      0.1354
     83  N         35.0590    9.8900   17.8050 N.3   261  VAL261     -0.1245
     84  CA        34.1230   10.0360   16.7010 C.3   261  VAL261      0.1561
     85  C         32.6970    9.6980   17.1220 C.2   261  VAL261      0.2260
     86  O         31.8040   10.5310   17.0210 O.2   261  VAL261     -0.2867
     87  CB        34.5160    9.1320   15.5020 C.3   261  VAL261      0.0252
     88  CG1       33.7190    9.5160   14.2670 C.3   261  VAL261      0.0019
     89  CG2       36.0060    9.2440   15.2340 C.3   261  VAL261      0.0019
     90  N         31.4780    9.2840   20.0530 N.3   263  LYS263     -0.1245
     91  CA        31.0670    9.9160   21.3160 C.3   263  LYS263      0.1561
     92  C         30.5180    9.0100   22.4190 C.2   263  LYS263      0.2260
     93  O         29.5690    9.4050   23.1090 O.2   263  LYS263     -0.2867
     94  CB        30.0120   10.9950   21.0510 C.3   263  LYS263      0.0271
     95  CG        30.3380   11.9200   19.8960 C.3   263  LYS263      0.0035
     96  CD        31.5160   12.8290   20.2080 C.3   263  LYS263      0.0206
     97  CE        31.7540   13.8630   19.1000 C.3   263  LYS263      0.1093
     98  NZ        32.4160   13.3010   17.8870 N.3   263  LYS263     -0.1314
     99  N         18.9940   -4.0470   22.8730 N.3   276  LYS276     -0.1245
    100  CA        18.1350   -3.4250   21.8790 C.3   276  LYS276      0.1561
    101  C         17.9600   -4.3660   20.6760 C.2   276  LYS276      0.2260
    102  O         16.8690   -4.9340   20.4780 O.2   276  LYS276     -0.2867
    103  CB        18.7300   -2.1110   21.4070 C.3   276  LYS276      0.0271
    104  CG        17.9240   -1.4020   20.3670 C.3   276  LYS276      0.0035
    105  CD        18.8510   -0.5740   19.4800 C.3   276  LYS276      0.0206
    106  CE        18.0880    0.1160   18.3430 C.3   276  LYS276      0.1093
    107  NZ        16.9550    0.9330   18.8830 N.3   276  LYS276     -0.1314
    108  N         19.3870   -1.9760   14.1350 N.3   292  ALA292     -0.1231
    109  CA        18.8300   -0.6760   14.4940 C.3   292  ALA292      0.1694
    110  C         18.0150   -0.0180   13.3930 C.2   292  ALA292      0.2592
    111  O         16.8440    0.2900   13.5840 O.2   292  ALA292     -0.2718
    112  CB        19.9580    0.2710   14.9610 C.3   292  ALA292      0.0304
    113  N         18.6400    0.2350   12.2570 N.am  293  HIS293     -0.1976
    114  CA        17.9190    0.8390   11.1670 C.3   293  HIS293      0.1656
    115  C         18.4930    0.4600    9.8100 C.2   293  HIS293      0.2291
    116  O         18.6360    1.2940    8.9220 O.2   293  HIS293     -0.2864
    117  CB        17.8600    2.3660   11.3290 C.3   293  HIS293      0.0771
    118  CG        19.1800    3.0640   11.2060 C.ar  293  HIS293      0.0820
    119  ND1       19.2760    4.4090   10.9220 N.ar  293  HIS293     -0.2267
    120  CD2       20.4530    2.6150   11.3330 C.ar  293  HIS293      0.1154
    121  CE1       20.5510    4.7610   10.8770 C.ar  293  HIS293      0.1986
    122  NE2       21.2860    3.6910   11.1210 N.ar  293  HIS293     -0.2212
    123  N         16.8240    2.0910    6.7500 N.3   296  ASN296     -0.1240
    124  CA        17.1560    3.4410    6.3300 C.3   296  ASN296      0.1653
    125  C         18.2780    3.4360    5.2960 C.2   296  ASN296      0.2266
    126  O         18.2300    4.1440    4.2960 O.2   296  ASN296     -0.2867
    127  CB        17.6120    4.2920    7.5160 C.3   296  ASN296      0.1155
    128  CG        16.4650    4.8840    8.2950 C.2   296  ASN296      0.2627
    129  OD1       15.3750    5.0710    7.7620 O.2   296  ASN296     -0.2716
    130  ND2       16.7120    5.2100    9.5730 N.am  296  ASN296     -0.0877
    131  N         26.9960    4.3270   13.8470 N.3   393  SER393     -0.1202
    132  CA        26.6120    5.6780   14.2320 C.3   393  SER393      0.2020
    133  C         25.3180    5.7900   15.0340 C.2   393  SER393      0.2618
    134  O         25.2580    6.4520   16.0740 O.2   393  SER393     -0.2717
    135  CB        26.5110    6.5640   12.9830 C.3   393  SER393      0.2103
    136  OG        26.2080    7.9210   13.2880 O.3   393  SER393     -0.2182
    137  N         24.2600    5.1590   14.5690 N.am  394  LEU394     -0.1979
    138  CA        22.9950    5.2800   15.2900 C.3   394  LEU394      0.1596
    139  C         23.0790    4.6170   16.6400 C.2   394  LEU394      0.2287
    140  O         22.6310    5.1720   17.6310 O.2   394  LEU394     -0.2864
    141  CB        21.8380    4.6830   14.4840 C.3   394  LEU394      0.0297
    142  CG        20.5480    4.5220   15.2700 C.3   394  LEU394      0.0022
    143  CD1       20.1740    5.8150   15.9470 C.3   394  LEU394      0.0001
    144  CD2       19.4610    4.0490   14.3400 C.3   394  LEU394      0.0001
    145  N         24.8360    6.9890   18.8920 N.3   397  ALA397     -0.1231
    146  CA        23.9460    8.0740   19.2570 C.3   397  ALA397      0.1694
    147  C         22.9590    7.6400   20.3250 C.2   397  ALA397      0.2591
    148  O         22.6860    8.3840   21.2480 O.2   397  ALA397     -0.2718
    149  CB        23.1840    8.5680   18.0240 C.3   397  ALA397      0.0304
    150  N         22.4150    6.4360   20.1900 N.am  398  LEU398     -0.1980
    151  CA        21.4330    5.9280   21.1410 C.3   398  LEU398      0.1596
    152  C         22.0820    5.6840   22.4780 C.2   398  LEU398      0.2287
    153  O         21.4860    5.9520   23.5230 O.2   398  LEU398     -0.2864
    154  CB        20.7940    4.6210   20.6270 C.3   398  LEU398      0.0297
    155  CG        19.7200    4.7350   19.5340 C.3   398  LEU398      0.0022
    156  CD1       19.4920    3.3820   18.8810 C.3   398  LEU398      0.0001
    157  CD2       18.4350    5.2780   20.1430 C.3   398  LEU398      0.0001
    158  N         21.5140   10.6510   22.1940 N.3   402  HIS402     -0.1226
    159  CA        21.4400   11.7180   21.2160 C.3   402  HIS402      0.1752
    160  C         20.3240   11.7370   20.1650 C.2   402  HIS402      0.2595
    161  O         20.1930   12.7320   19.4520 O.2   402  HIS402     -0.2718
    162  CB        22.7700   11.7810   20.4870 C.3   402  HIS402      0.0759
    163  CG        23.9230   12.1560   21.3600 C.ar  402  HIS402      0.0818
    164  ND1       25.2340   12.0860   20.9280 N.ar  402  HIS402     -0.2268
    165  CD2       23.9630   12.6310   22.6280 C.ar  402  HIS402      0.1154
    166  CE1       26.0310   12.5020   21.8950 C.ar  402  HIS402      0.1986
    167  NE2       25.2860   12.8380   22.9370 N.ar  402  HIS402     -0.2212
    168  N         19.5230   10.6770   20.0520 N.am  403  LEU403     -0.1980
    169  CA        18.4890   10.6590   19.0140 C.3   403  LEU403      0.1596
    170  C         17.7180   11.9690   18.9410 C.2   403  LEU403      0.2287
    171  O         17.7320   12.6470   17.9060 O.2   403  LEU403     -0.2864
    172  CB        17.5230    9.4990   19.2080 C.3   403  LEU403      0.0297
    173  CG        17.0370    9.0340   17.8310 C.3   403  LEU403      0.0022
    174  CD1       18.2170    8.4630   17.0620 C.3   403  LEU403      0.0001
    175  CD2       15.9330    8.0070   17.9690 C.3   403  LEU403      0.0001
@<TRIPOS>BOND
     1     7     5    1
     2     5     6    1
     3     5     2    1
     4     2     1    1
     5     2     3    1
     6     3     4    2
     7    41    39    1
     8    40    39    1
     9   126   125    2
    10    39    36    1
    11     8     9    1
    12   125   124    1
    13    34    32    1
    14    60    58   am
    15    36    35    1
    16    36    37    1
    17    59    58    2
    18    58    57    1
    19    35    29   am
    20     9    10    1
    21     9    12    1
    22    32    31    1
    23    32    33    1
    24   124   123    1
    25   124   127    1
    26    37    38    2
    27    37    42   am
    28    11    10    2
    29    10    17   am
    30    12    13    1
    31    31    28    1
    32    57    54    1
    33    29    30    2
    34    29    28    1
    35    54    53    1
    36    54    55    1
    37    42    43    1
    38    17    18    1
    39   127   128    1
    40   129   128    2
    41    28    27    1
    42    18    19    1
    43    15    14   ar
    44   128   130   am
    45    43    46    1
    46    43    44    1
    47    13    14    1
    48    27    23   am
    49    56    55    2
    50    55    61   am
    51    21    19   am
    52    21    22    1
    53    14    16   ar
    54   116   115    2
    55    19    20    2
    56    72    73    1
    57    23    24    2
    58    23    22    1
    59    44    45    2
    60    44    47   am
    61    81    80    1
    62    73    76    1
    63    73    74    1
    64    61    62    1
    65    22    25    1
    66    47    48    1
    67    80    82    1
    68    80    79    2
    69   115   114    1
    70    49    50    2
    71    49    48    1
    72    78    79    1
    73    78    77    1
    74    76    77    1
    75    48    51    1
    76    75    74    2
    77   121   119   ar
    78   121   122   ar
    79    62    63    1
    80    62    65    1
    81   119   118   ar
    82    51    52    1
    83    25    26    1
    84   122   120   ar
    85    63    64    2
    86   114   117    1
    87   114   113    1
    88   118   117    1
    89   118   120   ar
    90    65    66    1
    91   113   110   am
    92   135   136    1
    93   135   132    1
    94   110   111    2
    95   110   109    1
    96    66    67    1
    97   131   132    1
    98   108   109    1
    99   132   133    1
   100    88    87    1
   101   144   142    1
   102    67    68    1
   103   141   142    1
   104   141   138    1
   105   109   112    1
   106   137   133   am
   107   137   138    1
   108   133   134    2
   109    89    87    1
   110   142   143    1
   111   138   139    1
   112    87    84    1
   113    68    69    2
   114    70    69    1
   115    69    71    1
   116   139   140    2
   117    84    85    1
   118    84    83    1
   119    86    85    2
   120   174   173    1
   121   173   175    1
   122   173   172    1
   123    98    97    1
   124   171   170    2
   125   149   146    1
   126   106   107    1
   127   106   105    1
   128   156   155    1
   129   145   146    1
   130   170   169    1
   131   169   172    1
   132   169   168    1
   133    97    96    1
   134   146   147    1
   135   161   160    2
   136   105   104    1
   137   155   157    1
   138   155   154    1
   139    95    96    1
   140    95    94    1
   141   168   160   am
   142    90    91    1
   143   160   159    1
   144   150   147   am
   145   150   151    1
   146   147   148    2
   147   104   103    1
   148   102   101    2
   149   162   159    1
   150   162   163    1
   151   154   151    1
   152   101   100    1
   153   164   163   ar
   154   164   166   ar
   155    94    91    1
   156   151   152    1
   157   159   158    1
   158    91    92    1
   159   163   165   ar
   160   103   100    1
   161   100    99    1
   162   166   167   ar
   163    92    93    2
   164   152   153    2
   165   165   167   ar
