@<TRIPOS>MOLECULE
tmp/1dqaB01.pdb
 169 160 0 0 0
SMALL
GASTEIGER

@<TRIPOS>ATOM
      1  N         -4.2650   27.6360    9.7390 N.3    79  VAL79      -0.1245
      2  CA        -3.8740   26.6260    8.7690 C.3    79  VAL79       0.1561
      3  C         -2.3820   26.3010    8.8350 C.2    79  VAL79       0.2260
      4  O         -1.5560   27.2030    8.9750 O.2    79  VAL79      -0.2867
      5  CB        -4.2730   27.0420    7.2940 C.3    79  VAL79       0.0252
      6  CG1       -3.6260   28.3740    6.9050 C.3    79  VAL79       0.0019
      7  CG2       -3.8520   25.9580    6.2880 C.3    79  VAL79       0.0019
      8  N         -4.9620   27.4660   21.7520 N.3    98  GLU98      -0.1231
      9  CA        -3.6100   27.3430   22.3080 C.3    98  GLU98       0.1699
     10  C         -2.5790   28.0560   21.4180 C.2    98  GLU98       0.2593
     11  O         -2.3020   27.6170   20.2930 O.2    98  GLU98      -0.2718
     12  CB        -3.1890   25.8700   22.5340 C.3    98  GLU98       0.0402
     13  CG        -1.7410   25.7640   23.0690 C.3    98  GLU98       0.1161
     14  CD        -1.3000   24.3860   23.5690 C.2    98  GLU98       0.3649
     15  OE1       -1.9750   23.3680   23.2990 O.co2  98  GLU98      -0.2457
     16  OE2       -0.2470   24.3340   24.2440 O.co2  98  GLU98      -0.2457
     17  N         -2.0090   29.1520   21.9260 N.am   99  GLY99      -0.1942
     18  CA        -0.9940   29.8830   21.1770 C.3    99  GLY99       0.2014
     19  C          0.2020   28.9920   20.8780 C.2    99  GLY99       0.2639
     20  O          0.5810   28.1610   21.7150 O.2    99  GLY99      -0.2714
     21  N          0.7730   29.1500   19.6820 N.am  100  CYS100     -0.1953
     22  CA         1.9260   28.3880   19.2050 C.3   100  CYS100      0.1843
     23  C          1.6240   27.0390   18.5790 C.2   100  CYS100      0.2625
     24  O          2.4940   26.4720   17.9360 O.2   100  CYS100     -0.2714
     25  CB         2.9880   28.1780   20.3040 C.3   100  CYS100      0.0997
     26  SG         3.7860   29.6840   20.8620 S.3   100  CYS100     -0.0797
     27  N          0.4280   26.5000   18.7970 N.am  101  LEU101     -0.1963
     28  CA         0.0970   25.1940   18.2340 C.3   101  LEU101      0.1728
     29  C          0.1660   25.1840   16.6960 C.2   101  LEU101      0.2616
     30  O          0.8850   24.3720   16.1130 O.2   101  LEU101     -0.2715
     31  CB        -1.2790   24.7160   18.7240 C.3   101  LEU101      0.0311
     32  CG        -1.7140   23.3340   18.2200 C.3   101  LEU101      0.0022
     33  CD1       -0.6900   22.3010   18.6500 C.3   101  LEU101      0.0001
     34  CD2       -3.1020   22.9440   18.7120 C.3   101  LEU101      0.0001
     35  N         -0.5280   26.1190   16.0510 N.am  102  VAL102     -0.1963
     36  CA        -0.5360   26.2030   14.5810 C.3   102  VAL102      0.1727
     37  C          0.8720   26.5220   14.0250 C.2   102  VAL102      0.2616
     38  O          1.3450   25.9050   13.0610 O.2   102  VAL102     -0.2715
     39  CB        -1.5550   27.2720   14.0920 C.3   102  VAL102      0.0290
     40  CG1       -1.4670   27.4220   12.5480 C.3   102  VAL102      0.0023
     41  CG2       -3.0000   26.8440   14.5110 C.3   102  VAL102      0.0023
     42  N          1.5540   27.4540   14.6780 N.am  103  ALA103     -0.1963
     43  CA         2.9090   27.8430   14.2790 C.3   103  ALA103      0.1728
     44  C          3.8710   26.6450   14.3270 C.2   103  ALA103      0.2616
     45  O          4.6870   26.4440   13.4310 O.2   103  ALA103     -0.2715
     46  CB         3.4250   28.9460   15.2180 C.3   103  ALA103      0.0334
     47  N          3.8120   25.9020   15.4290 N.am  104  SER104     -0.1950
     48  CA         4.6780   24.7370   15.6470 C.3   104  SER104      0.1924
     49  C          4.4140   23.6540   14.5990 C.2   104  SER104      0.2314
     50  O          5.3500   23.1150   13.9980 O.2   104  SER104     -0.2863
     51  CB         4.4220   24.1760   17.0580 C.3   104  SER104      0.2116
     52  OG         5.3570   23.1670   17.4110 O.3   104  SER104     -0.2180
     53  N          3.0070   24.0590   11.6900 N.3   106  ASN106     -0.1225
     54  CA         3.3990   24.6270   10.3890 C.3   106  ASN106      0.1785
     55  C          4.9040   24.4220   10.1970 C.2   106  ASN106      0.2597
     56  O          5.3620   24.0320    9.1140 O.2   106  ASN106     -0.2718
     57  CB         3.0650   26.1330   10.3670 C.3   106  ASN106      0.1169
     58  CG         3.0220   26.7190    8.9580 C.2   106  ASN106      0.2627
     59  OD1        2.4500   26.1260    8.0380 O.2   106  ASN106     -0.2716
     60  ND2        3.5950   27.9140    8.7980 N.am  106  ASN106     -0.0877
     61  N          5.6680   24.6540   11.2650 N.am  107  ARG107     -0.1979
     62  CA         7.1160   24.4790   11.2270 C.3   107  ARG107      0.1597
     63  C          7.4860   23.0100   10.9710 C.2   107  ARG107      0.2287
     64  O          8.4370   22.7170   10.2430 O.2   107  ARG107     -0.2864
     65  CB         7.7680   24.9660   12.5370 C.3   107  ARG107      0.0334
     66  CG         9.2900   24.8250   12.5350 C.3   107  ARG107      0.0492
     67  CD         9.9700   25.5540   13.7010 C.3   107  ARG107      0.2205
     68  NE         9.8930   24.7830   14.9380 N.pl3 107  ARG107     -0.0865
     69  CZ        10.8200   24.8080   15.8880 C.cat 107  ARG107      0.5346
     70  NH1       11.8990   25.5660   15.7300 N.pl3 107  ARG107      0.1354
     71  NH2       10.6340   24.1440   17.0250 N.pl3 107  ARG107      0.1354
     72  N          6.9260   22.3290    7.3740 N.3   110  ARG110     -0.1245
     73  CA         8.0080   22.9210    6.5880 C.3   110  ARG110      0.1563
     74  C          9.2430   22.0030    6.5930 C.2   110  ARG110      0.2260
     75  O          9.8400   21.7830    5.5460 O.2   110  ARG110     -0.2867
     76  CB         8.3400   24.3240    7.1170 C.3   110  ARG110      0.0307
     77  CG         9.4150   25.1020    6.3260 C.3   110  ARG110      0.0489
     78  CD         8.9740   25.4300    4.9020 C.3   110  ARG110      0.2205
     79  NE         9.9450   26.3110    4.2360 N.pl3 110  ARG110     -0.0865
     80  CZ        10.1880   26.3200    2.9270 C.cat 110  ARG110      0.5346
     81  NH1        9.5360   25.4950    2.1080 N.pl3 110  ARG110      0.1354
     82  NH2       11.0900   27.1570    2.4320 N.pl3 110  ARG110      0.1354
     83  N         15.6610   24.7840   10.0650 N.3   259  VAL259     -0.1245
     84  CA        14.2290   24.9060   10.3300 C.3   259  VAL259      0.1561
     85  C         13.9120   24.5870   11.7880 C.2   259  VAL259      0.2260
     86  O         13.2500   25.3710   12.4620 O.2   259  VAL259     -0.2867
     87  CB        13.3790   23.9800    9.4090 C.3   259  VAL259      0.0252
     88  CG1       11.8890   24.0560    9.7840 C.3   259  VAL259      0.0019
     89  CG2       13.5580   24.3930    7.9530 C.3   259  VAL259      0.0019
     90  N         16.1310   24.2640   14.3440 N.3   261  LYS261     -0.1245
     91  CA        17.0730   24.9430   15.2450 C.3   261  LYS261      0.1561
     92  C         17.7460   24.0270   16.2500 C.2   261  LYS261      0.2260
     93  O         17.9840   24.4200   17.4000 O.2   261  LYS261     -0.2867
     94  CB        16.3590   26.0840   15.9950 C.3   261  LYS261      0.0271
     95  CG        15.4980   27.0090   15.1150 C.3   261  LYS261      0.0035
     96  CD        16.3180   27.6700   14.0110 C.3   261  LYS261      0.0206
     97  CE        15.5270   28.7780   13.3120 C.3   261  LYS261      0.1093
     98  NZ        14.3150   28.3190   12.5730 N.3   261  LYS261     -0.1314
     99  N          2.9400   15.3930   22.0590 N.3   291  HIS291     -0.1241
    100  CA         1.6440   16.0550   22.0670 C.3   291  HIS291      0.1621
    101  C          0.6810   15.7150   20.9260 C.2   291  HIS291      0.2264
    102  O          0.0190   16.5960   20.3740 O.2   291  HIS291     -0.2867
    103  CB         1.7870   17.5950   22.2510 C.3   291  HIS291      0.0745
    104  CG         2.2680   18.3350   21.0360 C.ar  291  HIS291      0.0817
    105  ND1        2.0020   19.6750   20.8440 N.ar  291  HIS291     -0.2268
    106  CD2        3.0270   17.9450   19.9810 C.ar  291  HIS291      0.1154
    107  CE1        2.5800   20.0820   19.7260 C.ar  291  HIS291      0.1986
    108  NE2        3.2110   19.0530   19.1850 N.ar  291  HIS291     -0.2212
    109  N         -2.7890   17.3760   21.0320 N.3   294  ASN294     -0.1240
    110  CA        -2.9920   18.7550   20.5850 C.3   294  ASN294      0.1653
    111  C         -3.4220   18.7830   19.1160 C.2   294  ASN294      0.2266
    112  O         -4.3660   19.4880   18.7600 O.2   294  ASN294     -0.2867
    113  CB        -1.7070   19.5970   20.7450 C.3   294  ASN294      0.1155
    114  CG        -1.5380   20.1580   22.1520 C.2   294  ASN294      0.2627
    115  OD1       -2.5110   20.3180   22.8860 O.2   294  ASN294     -0.2716
    116  ND2       -0.2970   20.5030   22.5130 N.am  294  ASN294     -0.0877
    117  N          8.3320   19.4560   15.6250 N.3   391  SER391     -0.1202
    118  CA         8.5250   20.8240   16.0920 C.3   391  SER391      0.2020
    119  C          8.5890   20.9550   17.6060 C.2   391  SER391      0.2618
    120  O          9.4750   21.6370   18.1270 O.2   391  SER391     -0.2717
    121  CB         7.4620   21.7480   15.5030 C.3   391  SER391      0.2103
    122  OG         7.7240   23.1010   15.8660 O.3   391  SER391     -0.2182
    123  N          7.6850   20.2890   18.3200 N.am  392  LEU392     -0.1979
    124  CA         7.7370   20.3690   19.7790 C.3   392  LEU392      0.1596
    125  C          9.0230   19.7210   20.3050 C.2   392  LEU392      0.2287
    126  O          9.7160   20.2900   21.1490 O.2   392  LEU392     -0.2864
    127  CB         6.4940   19.7460   20.4370 C.3   392  LEU392      0.0297
    128  CG         6.5870   19.6240   21.9750 C.3   392  LEU392      0.0022
    129  CD1        6.8120   21.0000   22.6200 C.3   392  LEU392      0.0001
    130  CD2        5.3070   19.0140   22.5340 C.3   392  LEU392      0.0001
    131  N         11.8410   22.0280   19.8660 N.3   395  ALA395     -0.1245
    132  CA        11.7770   23.1290   20.8300 C.3   395  ALA395      0.1562
    133  C         12.2640   22.6740   22.2100 C.2   395  ALA395      0.2260
    134  O         12.9840   23.4120   22.9090 O.2   395  ALA395     -0.2867
    135  CB        10.3500   23.6880   20.9150 C.3   395  ALA395      0.0290
    136  N         13.5330   25.9400   23.8910 N.3   400  HIS400     -0.1226
    137  CA        12.6600   27.0180   23.4190 C.3   400  HIS400      0.1752
    138  C         11.1730   26.9470   23.7820 C.2   400  HIS400      0.2595
    139  O         10.3960   27.8080   23.3470 O.2   400  HIS400     -0.2718
    140  CB        12.7640   27.1140   21.8990 C.3   400  HIS400      0.0759
    141  CG        14.1560   27.3450   21.3940 C.ar  400  HIS400      0.0818
    142  ND1       14.5100   27.1500   20.0740 N.ar  400  HIS400     -0.2268
    143  CD2       15.2770   27.7710   22.0270 C.ar  400  HIS400      0.1154
    144  CE1       15.7900   27.4480   19.9170 C.ar  400  HIS400      0.1986
    145  NE2       16.2770   27.8250   21.0870 N.ar  400  HIS400     -0.2212
    146  N         10.7650   25.9410   24.5560 N.am  401  LEU401     -0.1980
    147  CA         9.3520   25.7940   24.9230 C.3   401  LEU401      0.1596
    148  C          8.7200   27.0180   25.5930 C.2   401  LEU401      0.2287
    149  O          7.7830   27.6180   25.0530 O.2   401  LEU401     -0.2864
    150  CB         9.1330   24.5790   25.8280 C.3   401  LEU401      0.0297
    151  CG         7.6520   24.2740   26.0850 C.3   401  LEU401      0.0022
    152  CD1        7.1110   23.5090   24.9080 C.3   401  LEU401      0.0001
    153  CD2        7.4580   23.4560   27.3450 C.3   401  LEU401      0.0001
    154  N          8.0920   30.7430   23.9790 N.3   404  SER404     -0.1202
    155  CA         7.1320   30.9860   22.8960 C.3   404  SER404      0.2020
    156  C          5.6380   30.9560   23.2600 C.2   404  SER404      0.2618
    157  O          4.9220   31.9170   22.9760 O.2   404  SER404     -0.2717
    158  CB         7.4350   30.0830   21.6930 C.3   404  SER404      0.2103
    159  OG         7.7130   28.7430   22.0740 O.3   404  SER404     -0.2182
    160  N          5.1620   29.8670   23.8630 N.am  405  HIS405     -0.1975
    161  CA         3.7510   29.7770   24.2460 C.3   405  HIS405      0.1656
    162  C          3.6270   29.8570   25.7460 C.2   405  HIS405      0.2291
    163  O          4.2110   30.8050   26.3110 O.2   405  HIS405     -0.2864
    164  CB         3.0860   28.4890   23.7370 C.3   405  HIS405      0.0771
    165  CG         3.8870   27.2530   23.9940 C.ar  405  HIS405      0.0820
    166  ND1        5.2490   27.2160   23.7980 N.ar  405  HIS405     -0.2267
    167  CD2        3.5190   26.0130   24.3820 C.ar  405  HIS405      0.1154
    168  CE1        5.6880   25.9970   24.0510 C.ar  405  HIS405      0.1986
    169  NE2        4.6590   25.2470   24.4110 N.ar  405  HIS405     -0.2212
@<TRIPOS>BOND
     1    81    80    1
     2    82    80    1
     3    80    79    2
     4    79    78    1
     5    78    77    1
     6    75    74    2
     7     7     5    1
     8    77    76    1
     9    73    74    1
    10    73    76    1
    11    73    72    1
    12     6     5    1
    13     5     2    1
    14    89    87    1
    15    59    58    2
    16     2     3    1
    17     2     1    1
    18    60    58   am
    19     3     4    2
    20    58    57    1
    21    56    55    2
    22    87    88    1
    23    87    84    1
    24    83    84    1
    25    55    54    1
    26    55    61   am
    27    64    63    2
    28    84    85    1
    29    57    54    1
    30    54    53    1
    31    63    62    1
    32    62    61    1
    33    62    65    1
    34    85    86    2
    35    66    65    1
    36    66    67    1
    37    40    39    1
    38    98    97    1
    39    38    37    2
    40    97    96    1
    41    45    44    2
    42    67    68    1
    43    50    49    2
    44    96    95    1
    45    37    36    1
    46    37    42   am
    47    39    41    1
    48    39    36    1
    49    43    44    1
    50    43    42    1
    51    43    46    1
    52    44    47   am
    53    90    91    1
    54    36    35    1
    55    49    48    1
    56    68    69    2
    57    95    94    1
    58    91    94    1
    59    91    92    1
    60    47    48    1
    61   121   122    1
    62   121   118    1
    63   117   118    1
    64    48    51    1
    65    70    69    1
    66    69    71    1
    67    35    29   am
    68   118   119    1
    69    30    29    2
    70    92    93    2
    71    29    28    1
    72    51    52    1
    73   119   120    2
    74   119   123   am
    75    24    23    2
    76    32    33    1
    77    32    34    1
    78    32    31    1
    79    28    31    1
    80    28    27    1
    81   123   124    1
    82    23    27   am
    83    23    22    1
    84   112   111    2
    85   111   110    1
    86   108   107   ar
    87   108   106   ar
    88    22    21    1
    89    22    25    1
    90    21    19   am
    91   107   105   ar
    92   124   125    1
    93   124   127    1
    94   131   132    1
    95   144   142   ar
    96   144   145   ar
    97   106   104   ar
    98   142   141   ar
    99    11    10    2
   100    25    26    1
   101   125   126    2
   102   102   101    2
   103   127   128    1
   104   110   113    1
   105   110   109    1
   106   113   114    1
   107   132   135    1
   108   132   133    1
   109   105   104   ar
   110    19    18    1
   111    19    20    2
   112   101   100    1
   113   104   103    1
   114   145   143   ar
   115    18    17    1
   116   141   140    1
   117   141   143   ar
   118    10    17   am
   119    10     9    1
   120   158   159    1
   121   158   155    1
   122     8     9    1
   123   140   137    1
   124   128   130    1
   125   128   129    1
   126    99   100    1
   127   100   103    1
   128   114   116   am
   129   114   115    2
   130   133   134    2
   131     9    12    1
   132    12    13    1
   133   155   156    1
   134   155   154    1
   135   157   156    2
   136    13    14    1
   137   156   160   am
   138    15    14   ar
   139   139   138    2
   140   137   138    1
   141   137   136    1
   142    14    16   ar
   143   164   165    1
   144   164   161    1
   145   138   146   am
   146   166   165   ar
   147   166   168   ar
   148   160   161    1
   149   165   167   ar
   150   168   169   ar
   151   161   162    1
   152   167   169   ar
   153   146   147    1
   154   152   151    1
   155   147   148    1
   156   147   150    1
   157   149   148    2
   158   162   163    2
   159   150   151    1
   160   151   153    1
