@<TRIPOS>MOLECULE
tmp/1dqeA00.pdb
 223 213 0 0 0
SMALL
GASTEIGER

@<TRIPOS>ATOM
      1  N         13.7200   23.7260    3.0250 N.3     5  MET5       -0.1245
      2  CA        12.3250   23.7160    2.5060 C.3     5  MET5        0.1570
      3  C         11.6660   22.4510    3.0470 C.2     5  MET5        0.2261
      4  O         10.4640   22.5200    3.2220 O.2     5  MET5       -0.2867
      5  CB        12.1810   23.7970    0.9890 C.3     5  MET5        0.0387
      6  CG        12.6100   25.1460    0.4560 C.3     5  MET5        0.0595
      7  SD        11.5230   26.4610    1.1190 S.3     5  MET5       -0.1393
      8  CE         9.9590   25.7740    0.6560 C.3     5  MET5        0.0692
      9  N         10.4980   23.3750    6.6180 N.3     8  LEU8       -0.1231
     10  CA         9.3950   24.3570    6.6030 C.3     8  LEU8        0.1693
     11  C          8.1180   23.7020    6.1700 C.2     8  LEU8        0.2592
     12  O          7.0280   23.9590    6.6990 O.2     8  LEU8       -0.2718
     13  CB         9.7500   25.5110    5.6510 C.3     8  LEU8        0.0284
     14  CG        10.4600   26.7690    6.1040 C.3     8  LEU8        0.0019
     15  CD1       11.4310   26.6790    7.2270 C.3     8  LEU8        0.0001
     16  CD2       11.1370   27.3840    4.8820 C.3     8  LEU8        0.0001
     17  N          8.2980   22.7990    5.1400 N.am    9  SER9       -0.1952
     18  CA         7.0900   22.1420    4.6250 C.3     9  SER9        0.1924
     19  C          6.4300   21.1980    5.6480 C.2     9  SER9        0.2314
     20  O          5.2350   21.2560    5.8680 O.2     9  SER9       -0.2863
     21  CB         7.3200   21.2610    3.3550 C.3     9  SER9        0.2116
     22  OG         7.7660   22.2190    2.4220 O.3     9  SER9       -0.2180
     23  N          4.7870   23.4680    8.3900 N.3    12  PHE12      -0.1241
     24  CA         3.6380   24.1890    7.8650 C.3    12  PHE12       0.1605
     25  C          2.4550   23.2560    7.7700 C.2    12  PHE12       0.2264
     26  O          1.3850   23.6700    8.1680 O.2    12  PHE12      -0.2867
     27  CB         4.0090   24.7860    6.4630 C.3    12  PHE12       0.0534
     28  CG         2.8220   25.6110    5.8680 C.ar   12  PHE12      -0.0203
     29  CD1        2.7050   26.8900    6.3280 C.ar   12  PHE12      -0.0042
     30  CD2        1.9120   25.0700    4.9730 C.ar   12  PHE12      -0.0042
     31  CE1        1.6710   27.7170    5.8330 C.ar   12  PHE12      -0.0003
     32  CE2        0.8560   25.8800    4.5050 C.ar   12  PHE12      -0.0003
     33  CZ         0.7720   27.1810    4.9560 C.ar   12  PHE12      -0.0000
     34  N         -1.5520   17.4540   -1.3120 N.3    33  PHE33      -0.1241
     35  CA        -0.4900   17.5410   -0.2930 C.3    33  PHE33       0.1605
     36  C          0.5320   16.4090   -0.4700 C.2    33  PHE33       0.2264
     37  O          1.7350   16.6420   -0.3070 O.2    33  PHE33      -0.2867
     38  CB        -1.1070   17.4880    1.0940 C.3    33  PHE33       0.0534
     39  CG        -1.6200   18.8380    1.5230 C.ar   33  PHE33      -0.0203
     40  CD1       -2.9470   19.1070    1.3960 C.ar   33  PHE33      -0.0042
     41  CD2       -0.7800   19.8540    1.9050 C.ar   33  PHE33      -0.0042
     42  CE1       -3.4950   20.3530    1.7280 C.ar   33  PHE33      -0.0003
     43  CE2       -1.3060   21.1090    2.2260 C.ar   33  PHE33      -0.0003
     44  CZ        -2.6570   21.3730    2.1490 C.ar   33  PHE33      -0.0000
     45  N          2.6830   17.6460   -3.2930 N.3    36  PHE36      -0.1227
     46  CA         2.9100   19.0940   -3.3110 C.3    36  PHE36       0.1736
     47  C          4.2520   19.3950   -4.0110 C.2    36  PHE36       0.2595
     48  O          4.1970   20.3210   -4.8300 O.2    36  PHE36      -0.2718
     49  CB         3.0010   19.6210   -1.8640 C.3    36  PHE36       0.0547
     50  CG         2.8030   21.1450   -1.8750 C.ar   36  PHE36      -0.0202
     51  CD1        1.5430   21.6840   -1.8780 C.ar   36  PHE36      -0.0042
     52  CD2        3.8910   22.0130   -1.9450 C.ar   36  PHE36      -0.0042
     53  CE1        1.3350   23.0340   -1.9350 C.ar   36  PHE36      -0.0003
     54  CE2        3.6940   23.3860   -2.0410 C.ar   36  PHE36      -0.0003
     55  CZ         2.4210   23.9120   -2.0020 C.ar   36  PHE36      -0.0000
     56  N          5.3330   18.6810   -3.7410 N.am   37  TRP37      -0.1976
     57  CA         6.6120   19.2050   -4.2950 C.3    37  TRP37       0.1640
     58  C          7.0250   18.4060   -5.5440 C.2    37  TRP37       0.2290
     59  O          8.2110   18.3890   -5.8810 O.2    37  TRP37      -0.2864
     60  CB         7.7780   19.1830   -3.2440 C.3    37  TRP37       0.0576
     61  CG         7.5780   20.3050   -2.2580 C.ar   37  TRP37       0.0006
     62  CD1        7.4380   20.2340   -0.9110 C.ar   37  TRP37       0.0946
     63  CD2        7.6070   21.7050   -2.5710 C.ar   37  TRP37       0.0152
     64  NE1        7.2430   21.5150   -0.3450 N.ar   37  TRP37      -0.2442
     65  CE2        7.3480   22.4330   -1.3860 C.ar   37  TRP37       0.0810
     66  CE3        7.7400   22.3860   -3.7830 C.ar   37  TRP37       0.0012
     67  CZ2        7.3310   23.8100   -1.3480 C.ar   37  TRP37       0.0191
     68  CZ3        7.6720   23.8070   -3.7020 C.ar   37  TRP37       0.0001
     69  CH2        7.4640   24.4890   -2.5290 C.ar   37  TRP37       0.0015
     70  N         -4.7040   25.4620    2.7630 N.3    52  ILE52      -0.1231
     71  CA        -3.4810   26.2850    2.9500 C.3    52  ILE52       0.1692
     72  C         -3.7950   27.5510    3.7310 C.2    52  ILE52       0.2591
     73  O         -3.0680   28.0160    4.6230 O.2    52  ILE52      -0.2718
     74  CB        -2.8460   26.5740    1.5690 C.3    52  ILE52       0.0266
     75  CG1       -2.2040   25.2780    1.0350 C.3    52  ILE52       0.0019
     76  CG2       -1.7950   27.6790    1.7360 C.3    52  ILE52       0.0020
     77  CD1       -1.8300   25.3170   -0.4210 C.3    52  ILE52       0.0001
     78  N         -4.9420   28.1610    3.4200 N.am   53  MET53      -0.1979
     79  CA        -5.3270   29.3810    4.1620 C.3    53  MET53       0.1605
     80  C         -5.4970   29.1340    5.6460 C.2    53  MET53       0.2287
     81  O         -5.1740   29.9460    6.5230 O.2    53  MET53      -0.2864
     82  CB        -6.6640   29.9400    3.5590 C.3    53  MET53       0.0413
     83  CG        -6.9010   31.3320    4.1060 C.3    53  MET53       0.0598
     84  SD        -8.2730   32.1360    3.2130 S.3    53  MET53      -0.1393
     85  CE        -9.6490   31.1470    3.7210 C.3    53  MET53       0.0692
     86  N         -2.0380   28.6310    7.2100 N.3    56  SER56      -0.1217
     87  CA        -1.4110   29.9530    7.4930 C.3    56  SER56       0.1889
     88  C         -2.0830   30.6720    8.6620 C.2    56  SER56       0.2288
     89  O         -1.3760   31.3680    9.4150 O.2    56  SER56      -0.2866
     90  CB        -1.5020   30.8740    6.3120 C.3    56  SER56       0.2089
     91  OG        -0.7990   30.2280    5.2210 O.3    56  SER56      -0.2183
     92  N          0.2030   33.6700   10.2550 N.3    61  MET61      -0.1230
     93  CA         0.9510   34.1660    9.1350 C.3    61  MET61       0.1702
     94  C          0.1480   35.0510    8.1980 C.2    61  MET61       0.2592
     95  O          0.7530   35.5410    7.2490 O.2    61  MET61      -0.2718
     96  CB         1.6600   33.0520    8.3400 C.3    61  MET61       0.0401
     97  CG         2.6960   32.4460    9.3210 C.3    61  MET61       0.0596
     98  SD         3.4350   30.9780    8.4120 S.3    61  MET61      -0.1393
     99  CE         4.0120   31.9550    7.0600 C.3    61  MET61       0.0692
    100  N         -1.0730   35.4600    8.5700 N.am   62  LEU62      -0.1980
    101  CA        -1.8990   36.2510    7.6580 C.3    62  LEU62       0.1596
    102  C         -2.3520   37.5750    8.3210 C.2    62  LEU62       0.2287
    103  O         -2.7520   37.5400    9.4950 O.2    62  LEU62      -0.2864
    104  CB        -3.1640   35.4860    7.2460 C.3    62  LEU62       0.0297
    105  CG        -2.9360   34.1750    6.4140 C.3    62  LEU62       0.0022
    106  CD1       -4.2850   33.7100    5.9080 C.3    62  LEU62       0.0001
    107  CD2       -1.9970   34.4800    5.2400 C.3    62  LEU62       0.0001
    108  N         -5.7230   39.1250    4.2220 N.3    66  GLY66      -0.1225
    109  CA        -5.3420   37.8070    3.7450 C.3    66  GLY66       0.1811
    110  C         -3.9580   37.7600    3.1400 C.2    66  GLY66       0.2280
    111  O         -3.6130   36.7350    2.5200 O.2    66  GLY66      -0.2866
    112  N          0.3260   37.8660    3.4050 N.3    68  LEU68      -0.1245
    113  CA         1.2720   37.3140    4.4150 C.3    68  LEU68       0.1561
    114  C          1.6680   38.4050    5.3860 C.2    68  LEU68       0.2260
    115  O          2.0010   39.5190    4.9360 O.2    68  LEU68      -0.2867
    116  CB         2.5300   36.9110    3.5980 C.3    68  LEU68       0.0270
    117  CG         3.6500   36.1790    4.4090 C.3    68  LEU68       0.0019
    118  CD1        3.1580   34.7580    4.7220 C.3    68  LEU68       0.0001
    119  CD2        4.9350   36.1710    3.5920 C.3    68  LEU68       0.0001
    120  N          5.8960   35.4570    9.2550 N.3    73  ALA73      -0.1245
    121  CA         6.5060   34.4820    8.2830 C.3    73  ALA73       0.1562
    122  C          8.0150   34.3950    8.5050 C.2    73  ALA73       0.2260
    123  O          8.6900   33.3490    8.3390 O.2    73  ALA73      -0.2867
    124  CB         6.3330   35.2120    6.9220 C.3    73  ALA73       0.0290
    125  N          8.6650   32.3320   11.5530 N.3    76  PHE76      -0.1227
    126  CA         8.4250   30.9160   11.1810 C.3    76  PHE76       0.1736
    127  C          9.6030   30.3390   10.4350 C.2    76  PHE76       0.2595
    128  O         10.1440   29.2610   10.7410 O.2    76  PHE76      -0.2718
    129  CB         7.1200   30.7910   10.3740 C.3    76  PHE76       0.0547
    130  CG         6.8240   29.3630    9.9680 C.ar   76  PHE76      -0.0202
    131  CD1        6.1800   28.4900   10.8250 C.ar   76  PHE76      -0.0042
    132  CD2        7.2230   28.9100    8.7080 C.ar   76  PHE76      -0.0042
    133  CE1        5.9350   27.1770   10.4200 C.ar   76  PHE76      -0.0003
    134  CE2        6.9490   27.6210    8.3110 C.ar   76  PHE76      -0.0003
    135  CZ         6.2890   26.7460    9.1610 C.ar   76  PHE76      -0.0000
    136  N         10.0120   31.0720    9.3540 N.am   77  ALA77      -0.1980
    137  CA        11.1130   30.6340    8.5320 C.3    77  ALA77       0.1597
    138  C         12.3850   30.4280    9.4170 C.2    77  ALA77       0.2287
    139  O         13.1090   29.4320    9.2210 O.2    77  ALA77      -0.2864
    140  CB        11.4110   31.6230    7.4470 C.3    77  ALA77       0.0319
    141  N         12.1600   33.8100    0.7180 N.3    90  LEU90      -0.1231
    142  CA        10.8220   33.2100    0.7220 C.3    90  LEU90       0.1693
    143  C          9.6670   34.2070    0.8920 C.2    90  LEU90       0.2591
    144  O          8.6380   34.1240    0.2080 O.2    90  LEU90      -0.2718
    145  CB        10.7100   32.2060    1.9100 C.3    90  LEU90       0.0284
    146  CG        11.6980   31.0480    1.7590 C.3    90  LEU90       0.0019
    147  CD1       11.6640   30.2630    3.0890 C.3    90  LEU90       0.0001
    148  CD2       11.3530   30.1370    0.5850 C.3    90  LEU90       0.0001
    149  N          9.8860   35.1980    1.7640 N.am   91  ILE91      -0.1980
    150  CA         8.8550   36.2160    1.9660 C.3    91  ILE91       0.1595
    151  C          8.6510   36.9490    0.6420 C.2    91  ILE91       0.2287
    152  O          7.5300   37.2020    0.1750 O.2    91  ILE91      -0.2864
    153  CB         9.1850   37.1980    3.1200 C.3    91  ILE91       0.0276
    154  CG1        8.8530   36.5310    4.4760 C.3    91  ILE91       0.0022
    155  CG2        8.2930   38.4370    2.9970 C.3    91  ILE91       0.0022
    156  CD1        9.2250   35.0910    4.6850 C.3    91  ILE91       0.0001
    157  N          6.4730   34.9150   -1.7750 N.3    94  VAL94      -0.1245
    158  CA         5.0550   34.9540   -1.4270 C.3    94  VAL94       0.1561
    159  C          4.5030   36.3500   -1.7810 C.2    94  VAL94       0.2260
    160  O          3.4660   36.4680   -2.4000 O.2    94  VAL94      -0.2867
    161  CB         4.7520   34.6150    0.0460 C.3    94  VAL94       0.0252
    162  CG1        3.2830   34.6800    0.2850 C.3    94  VAL94       0.0019
    163  CG2        5.2210   33.1560    0.3190 C.3    94  VAL94       0.0019
    164  N          1.6140   37.3770   -4.3710 N.3    98  GLU98      -0.1245
    165  CA         0.3860   38.0530   -4.0680 C.3    98  GLU98       0.1567
    166  C          0.1380   39.1950   -5.1030 C.2    98  GLU98       0.2260
    167  O         -1.0350   39.6000   -5.2310 O.2    98  GLU98      -0.2867
    168  CB         0.5310   38.7370   -2.6520 C.3    98  GLU98       0.0388
    169  CG         0.4730   37.6190   -1.5850 C.3    98  GLU98       0.1160
    170  CD         0.7500   38.1250   -0.1630 C.2    98  GLU98       0.3649
    171  OE1        1.1220   39.2900    0.0240 O.co2  98  GLU98      -0.2457
    172  OE2        0.5490   37.2720    0.7470 O.co2  98  GLU98      -0.2457
    173  N         -8.0040   32.2740   -4.4860 N.3   110  TRP110     -0.1227
    174  CA        -6.8660   33.2210   -4.5380 C.3   110  TRP110      0.1737
    175  C         -5.6530   32.6420   -3.7910 C.2   110  TRP110      0.2596
    176  O         -4.5140   32.6880   -4.3120 O.2   110  TRP110     -0.2718
    177  CB        -7.3200   34.4830   -3.8440 C.3   110  TRP110      0.0564
    178  CG        -6.2580   35.5360   -3.9440 C.ar  110  TRP110      0.0003
    179  CD1       -5.9100   36.3040   -5.0260 C.ar  110  TRP110      0.0946
    180  CD2       -5.3700   35.8770   -2.8860 C.ar  110  TRP110      0.0152
    181  NE1       -4.8380   37.1220   -4.7060 N.ar  110  TRP110     -0.2442
    182  CE2       -4.5120   36.8810   -3.3860 C.ar  110  TRP110      0.0810
    183  CE3       -5.2120   35.4200   -1.5680 C.ar  110  TRP110      0.0012
    184  CZ2       -3.4820   37.4520   -2.6370 C.ar  110  TRP110      0.0191
    185  CZ3       -4.2260   35.9970   -0.8050 C.ar  110  TRP110      0.0001
    186  CH2       -3.4360   37.0210   -1.3370 C.ar  110  TRP110      0.0015
    187  N         -5.9050   32.0120   -2.6760 N.am  111  THR111     -0.1953
    188  CA        -4.7680   31.3800   -1.9180 C.3   111  THR111      0.1897
    189  C         -4.1390   30.2690   -2.7050 C.2   111  THR111      0.2313
    190  O         -2.8970   30.1510   -2.7980 O.2   111  THR111     -0.2863
    191  CB        -5.2630   30.7990   -0.5830 C.3   111  THR111      0.1794
    192  OG1       -5.7630   31.8480    0.2620 O.3   111  THR111     -0.2208
    193  CG2       -4.1650   30.0550    0.1770 C.3   111  THR111      0.0378
    194  N         -1.7720   31.8490   -5.1670 N.3   114  VAL114     -0.1231
    195  CA        -0.5480   32.2450   -4.5170 C.3   114  VAL114      0.1692
    196  C          0.3190   30.9690   -4.3150 C.2   114  VAL114      0.2591
    197  O          1.5270   31.1060   -4.5280 O.2   114  VAL114     -0.2718
    198  CB        -0.8670   32.9620   -3.2310 C.3   114  VAL114      0.0266
    199  CG1        0.4250   33.3510   -2.5000 C.3   114  VAL114      0.0020
    200  CG2       -1.6880   34.2160   -3.6230 C.3   114  VAL114      0.0020
    201  N         -0.3070   29.9570   -3.7210 N.am  115  ALA115     -0.1980
    202  CA         0.4800   28.7470   -3.4720 C.3   115  ALA115      0.1597
    203  C          1.0660   28.1300   -4.7430 C.2   115  ALA115      0.2287
    204  O          2.2070   27.6420   -4.6480 O.2   115  ALA115     -0.2864
    205  CB        -0.4350   27.7420   -2.7090 C.3   115  ALA115      0.0319
    206  N          4.0460   30.2660   -5.7760 N.3   118  PHE118     -0.1241
    207  CA         5.1350   29.9910   -4.8080 C.3   118  PHE118      0.1605
    208  C          5.8940   28.6950   -5.1220 C.2   118  PHE118      0.2264
    209  O          7.1130   28.6660   -5.3140 O.2   118  PHE118     -0.2867
    210  CB         4.6000   29.9800   -3.3640 C.3   118  PHE118      0.0534
    211  CG         5.6600   29.6230   -2.3050 C.ar  118  PHE118     -0.0203
    212  CD1        6.4840   30.6330   -1.8250 C.ar  118  PHE118     -0.0042
    213  CD2        5.6900   28.3430   -1.8290 C.ar  118  PHE118     -0.0042
    214  CE1        7.4670   30.3390   -0.8160 C.ar  118  PHE118     -0.0003
    215  CE2        6.6580   27.9830   -0.8530 C.ar  118  PHE118     -0.0003
    216  CZ         7.4910   29.0150   -0.3710 C.ar  118  PHE118     -0.0000
    217  N          3.4920   16.2840    3.0790 N.3   135  VAL135     -0.1245
    218  CA         3.0960   17.4490    3.8800 C.3   135  VAL135      0.1561
    219  C          1.7740   17.2040    4.5460 C.2   135  VAL135      0.2260
    220  O          0.8710   16.6860    3.8440 O.2   135  VAL135     -0.2867
    221  CB         2.9160   18.6610    2.9510 C.3   135  VAL135      0.0252
    222  CG1        2.3700   19.8550    3.6920 C.3   135  VAL135      0.0019
    223  CG2        4.2910   18.8390    2.3140 C.3   135  VAL135      0.0019
@<TRIPOS>BOND
     1    59    58    2
     2   206   207    1
     3    58    57    1
     4   209   208    2
     5   167   166    2
     6   194   195    1
     7   208   207    1
     8   166   165    1
     9   179   181   ar
    10   179   178   ar
    11    48    47    2
    12   207   210    1
    13   203   204    2
    14   203   202    1
    15   181   182   ar
    16   174   173    1
    17   174   177    1
    18   174   175    1
    19   197   196    2
    20   195   196    1
    21   195   198    1
    22   164   165    1
    23   196   201   am
    24   176   175    2
    25    57    56    1
    26    57    60    1
    27   165   168    1
    28    47    56   am
    29    47    46    1
    30   178   177    1
    31   178   180   ar
    32   175   187   am
    33    66    68   ar
    34    66    63   ar
    35   201   202    1
    36    68    69   ar
    37   200   198    1
    38   202   205    1
    39   182   180   ar
    40   182   184   ar
    41   210   211    1
    42    46    45    1
    43    46    49    1
    44    60    61    1
    45   198   199    1
    46   180   183   ar
    47   190   189    2
    48   189   188    1
    49   187   188    1
    50   168   169    1
    51   184   186   ar
    52    63    61   ar
    53    63    65   ar
    54    69    67   ar
    55   160   159    2
    56   211   213   ar
    57   211   212   ar
    58    61    62   ar
    59    54    55   ar
    60    54    52   ar
    61    55    53   ar
    62    52    50   ar
    63    53    51   ar
    64   188   191    1
    65    51    50   ar
    66    50    49    1
    67   213   215   ar
    68   212   214   ar
    69   159   158    1
    70   157   158    1
    71   169   170    1
    72   183   185   ar
    73   158   161    1
    74    65    67   ar
    75    65    64   ar
    76   186   185   ar
    77    34    35    1
    78    62    64   ar
    79   215   216   ar
    80   214   216   ar
    81   191   193    1
    82   191   192    1
    83    36    37    2
    84    36    35    1
    85    77    75    1
    86    35    38    1
    87   170   171   ar
    88   170   172   ar
    89   161   162    1
    90   161   163    1
    91   152   151    2
    92   144   143    2
    93     6     5    1
    94     6     7    1
    95   148   146    1
    96   151   150    1
    97     8     7    1
    98   141   142    1
    99   142   143    1
   100   142   145    1
   101   143   149   am
   102     5     2    1
   103    75    74    1
   104    38    39    1
   105    40    39   ar
   106    40    42   ar
   107    39    41   ar
   108    74    76    1
   109    74    71    1
   110    42    44   ar
   111   146   145    1
   112   146   147    1
   113   149   150    1
   114    41    43   ar
   115   150   153    1
   116    44    43   ar
   117   223   221    1
   118    22    21    1
   119     2     1    1
   120     2     3    1
   121   111   110    2
   122    70    71    1
   123    71    72    1
   124   221   222    1
   125   221   218    1
   126   155   153    1
   127     3     4    2
   128   217   218    1
   129   153   154    1
   130   110   109    1
   131    84    85    1
   132    84    83    1
   133    21    18    1
   134   112   113    1
   135    78    72   am
   136    78    79    1
   137    82    83    1
   138    82    79    1
   139   119   117    1
   140   116   117    1
   141   116   113    1
   142    72    73    2
   143   109   108    1
   144   220   219    2
   145   218   219    1
   146    79    80    1
   147   117   118    1
   148   113   114    1
   149   154   156    1
   150    32    33   ar
   151    32    30   ar
   152    18    17    1
   153    18    19    1
   154    16    14    1
   155   115   114    2
   156    33    31   ar
   157    30    28   ar
   158    17    11   am
   159    91    90    1
   160   107   105    1
   161    80    81    2
   162    19    20    2
   163    13    14    1
   164    13    10    1
   165    31    29   ar
   166    28    29   ar
   167    28    27    1
   168   106   105    1
   169    14    15    1
   170    11    10    1
   171    11    12    2
   172    90    87    1
   173   105   104    1
   174    27    24    1
   175    10     9    1
   176   124   121    1
   177    99    98    1
   178    86    87    1
   179   104   101    1
   180    95    94    2
   181   140   137    1
   182    87    88    1
   183   101   102    1
   184   101   100    1
   185    25    24    1
   186    25    26    2
   187    24    23    1
   188    94   100   am
   189    94    93    1
   190   121   122    1
   191   121   120    1
   192   134   132   ar
   193   134   135   ar
   194   102   103    2
   195   123   122    2
   196    96    93    1
   197    96    97    1
   198    98    97    1
   199   137   136    1
   200   137   138    1
   201    88    89    2
   202   132   130   ar
   203    93    92    1
   204   135   133   ar
   205   139   138    2
   206   136   127   am
   207   130   129    1
   208   130   131   ar
   209   129   126    1
   210   133   131   ar
   211   127   128    2
   212   127   126    1
   213   126   125    1
