@<TRIPOS>MOLECULE
tmp/1dqnB00.pdb
 170 168 0 0 0
SMALL
GASTEIGER

@<TRIPOS>ATOM
      1  N          8.6580   -9.4080   48.3830 N.3    68  LEU68      -0.1231
      2  CA         9.1600  -10.1920   47.2590 C.3    68  LEU68       0.1693
      3  C          9.1000   -9.4550   45.9250 C.2    68  LEU68       0.2592
      4  O          8.0070   -9.1980   45.3970 O.2    68  LEU68      -0.2718
      5  CB         8.3800  -11.5140   47.1530 C.3    68  LEU68       0.0284
      6  CG         8.2820  -12.3270   48.4500 C.3    68  LEU68       0.0019
      7  CD1        7.6330  -13.6930   48.1610 C.3    68  LEU68       0.0001
      8  CD2        9.6660  -12.5110   49.0590 C.3    68  LEU68       0.0001
      9  N         10.2750   -9.1460   45.3740 N.am   69  LEU69      -0.1966
     10  CA        10.3420   -8.4380   44.0980 C.3    69  LEU69       0.1728
     11  C          9.8180   -9.3360   42.9730 C.2    69  LEU69       0.2617
     12  O          9.8950  -10.5610   43.0870 O.2    69  LEU69      -0.2715
     13  CB        11.7920   -8.0610   43.8080 C.3    69  LEU69       0.0311
     14  CG        12.4390   -7.0320   44.7420 C.3    69  LEU69       0.0022
     15  CD1       13.9580   -7.1220   44.6380 C.3    69  LEU69       0.0001
     16  CD2       11.9780   -5.6230   44.3760 C.3    69  LEU69       0.0001
     17  N          9.2860   -8.7500   41.9010 N.am   70  THR70      -0.1937
     18  CA         9.1620   -7.2980   41.7200 C.3    70  THR70       0.2028
     19  C          7.7600   -6.7780   42.0850 C.2    70  THR70       0.2642
     20  O          7.6010   -5.6820   42.6170 O.2    70  THR70      -0.2714
     21  CB         9.4060   -6.9190   40.2510 C.3    70  THR70       0.1808
     22  OG1       10.6510   -7.4790   39.8150 O.3    70  THR70      -0.2208
     23  CG2        9.4240   -5.4040   40.0870 C.3    70  THR70       0.0379
     24  N          6.7720   -7.5970   41.7510 N.am   71  GLY71      -0.1954
     25  CA         5.3780   -7.2500   41.9410 C.3    71  GLY71       0.1869
     26  C          4.9190   -6.6870   43.2690 C.2    71  GLY71       0.2309
     27  O          4.0010   -5.8680   43.3010 O.2    71  GLY71      -0.2863
     28  N          9.8290  -26.7700   43.0260 N.3   103  GLU103     -0.1245
     29  CA        10.2960  -25.4350   42.6740 C.3   103  GLU103      0.1567
     30  C         10.7980  -24.7890   43.9680 C.2   103  GLU103      0.2260
     31  O         10.0920  -24.7800   44.9800 O.2   103  GLU103     -0.2867
     32  CB         9.1450  -24.6210   42.0670 C.3   103  GLU103      0.0388
     33  CG         9.5270  -23.2130   41.6390 C.3   103  GLU103      0.1160
     34  CD         8.3930  -22.4780   40.9450 C.2   103  GLU103      0.3649
     35  OE1        8.0030  -22.8900   39.8280 O.co2 103  GLU103     -0.2457
     36  OE2        7.8920  -21.4880   41.5200 O.co2 103  GLU103     -0.2457
     37  N          3.7330  -10.0220   49.9340 N.3   125  ASP125     -0.1225
     38  CA         3.5120  -10.3800   48.5380 C.3   125  ASP125      0.1805
     39  C          2.1470   -9.8360   48.1370 C.2   125  ASP125      0.2598
     40  O          1.2310   -9.7930   48.9580 O.2   125  ASP125     -0.2718
     41  CB         3.5450  -11.9090   48.4000 C.3   125  ASP125      0.1424
     42  CG         3.5260  -12.3680   46.9620 C.2   125  ASP125      0.3668
     43  OD1        3.5260  -13.5990   46.7350 O.co2 125  ASP125     -0.2456
     44  OD2        3.5180  -11.5060   46.0620 O.co2 125  ASP125     -0.2456
     45  N          2.0030   -9.3990   46.8920 N.am  126  GLU126     -0.1965
     46  CA         0.7130   -8.8700   46.4710 C.3   126  GLU126      0.1733
     47  C         -0.2500  -10.0170   46.1740 C.2   126  GLU126      0.2616
     48  O         -1.4640   -9.8730   46.3220 O.2   126  GLU126     -0.2715
     49  CB         0.8730   -7.9790   45.2310 C.3   126  GLU126      0.0429
     50  CG         1.2050   -8.7100   43.9300 C.3   126  GLU126      0.1163
     51  CD         2.4840   -9.5170   44.0080 C.2   126  GLU126      0.3649
     52  OE1        3.5330   -8.9470   44.3550 O.co2 126  GLU126     -0.2457
     53  OE2        2.4370  -10.7290   43.7210 O.co2 126  GLU126     -0.2457
     54  N          0.2990  -11.1660   45.7940 N.am  127  TYR127     -0.1960
     55  CA        -0.5260  -12.3130   45.4420 C.3   127  TYR127      0.1771
     56  C          0.1180  -13.6810   45.6640 C.2   127  TYR127      0.2619
     57  O          1.1440  -13.9990   45.0720 O.2   127  TYR127     -0.2715
     58  CB        -0.9410  -12.1760   43.9740 C.3   127  TYR127      0.0574
     59  CG        -1.8620  -13.2580   43.4520 C.ar  127  TYR127     -0.0198
     60  CD1       -2.8730  -13.7800   44.2510 C.ar  127  TYR127     -0.0009
     61  CD2       -1.7840  -13.6840   42.1220 C.ar  127  TYR127     -0.0009
     62  CE1       -3.7940  -14.6880   43.7460 C.ar  127  TYR127      0.0417
     63  CE2       -2.7070  -14.5950   41.6030 C.ar  127  TYR127      0.0417
     64  CZ        -3.7110  -15.0840   42.4270 C.ar  127  TYR127      0.1957
     65  OH        -4.6710  -15.9400   41.9410 O.3   127  TYR127     -0.2866
     66  N         -0.4940  -14.4850   46.5280 N.am  128  VAL128     -0.1963
     67  CA        -0.0200  -15.8380   46.7850 C.3   128  VAL128      0.1727
     68  C         -0.9740  -16.7160   45.9830 C.2   128  VAL128      0.2616
     69  O         -2.1600  -16.8220   46.3100 O.2   128  VAL128     -0.2715
     70  CB        -0.1040  -16.2040   48.2810 C.3   128  VAL128      0.0290
     71  CG1        0.1550  -17.6910   48.4690 C.3   128  VAL128      0.0023
     72  CG2        0.9200  -15.3940   49.0700 C.3   128  VAL128      0.0023
     73  N         -0.4430  -17.3190   44.9240 N.am  129  ASP129     -0.1957
     74  CA        -1.2090  -18.1620   44.0090 C.3   129  ASP129      0.1840
     75  C         -0.9680  -19.6520   44.2640 C.2   129  ASP129      0.2623
     76  O         -1.6290  -20.2540   45.1150 O.2   129  ASP129     -0.2715
     77  CB        -0.8220  -17.8080   42.5690 C.3   129  ASP129      0.1450
     78  CG        -1.7010  -18.4850   41.5380 C.2   129  ASP129      0.3671
     79  OD1       -2.5770  -19.2890   41.9220 O.co2 129  ASP129     -0.2456
     80  OD2       -1.5110  -18.2110   40.3350 O.co2 129  ASP129     -0.2456
     81  N         -0.0270  -20.2450   43.5270 N.am  130  SER130     -0.1936
     82  CA         0.2680  -21.6660   43.7100 C.3   130  SER130      0.2055
     83  C          0.8570  -21.8700   45.0960 C.2   130  SER130      0.2644
     84  O          0.7310  -22.9450   45.6860 O.2   130  SER130     -0.2714
     85  CB         1.2620  -22.1690   42.6580 C.3   130  SER130      0.2130
     86  OG         2.5840  -21.7830   42.9830 O.3   130  SER130     -0.2179
     87  N          1.5060  -20.8330   45.6130 N.am  131  GLY131     -0.1939
     88  CA         2.1010  -20.9150   46.9340 C.3   131  GLY131      0.2014
     89  C          3.5090  -21.4850   46.9500 C.2   131  GLY131      0.2639
     90  O          4.1670  -21.4860   47.9910 O.2   131  GLY131     -0.2714
     91  N          3.9770  -21.9650   45.8010 N.am  132  HIS132     -0.1959
     92  CA         5.3140  -22.5450   45.7090 C.3   132  HIS132      0.1787
     93  C          6.3920  -21.5920   46.2220 C.2   132  HIS132      0.2621
     94  O          7.3570  -22.0130   46.8650 O.2   132  HIS132     -0.2715
     95  CB         5.6300  -22.9480   44.2630 C.3   132  HIS132      0.0785
     96  CG         4.7150  -24.0000   43.7130 C.ar  132  HIS132      0.0821
     97  ND1        4.2440  -25.0500   44.4730 N.ar  132  HIS132     -0.2267
     98  CD2        4.2040  -24.1760   42.4710 C.ar  132  HIS132      0.1154
     99  CE1        3.4810  -25.8260   43.7230 C.ar  132  HIS132      0.1986
    100  NE2        3.4400  -25.3170   42.5050 N.ar  132  HIS132     -0.2212
    101  N          6.2270  -20.3040   45.9410 N.am  133  THR133     -0.1937
    102  CA         7.1960  -19.3150   46.3920 C.3   133  THR133      0.2028
    103  C          7.2890  -19.2900   47.9120 C.2   133  THR133      0.2642
    104  O          8.3710  -19.4570   48.4700 O.2   133  THR133     -0.2714
    105  CB         6.8370  -17.9010   45.9000 C.3   133  THR133      0.1808
    106  OG1        6.9770  -17.8380   44.4750 O.3   133  THR133     -0.2208
    107  CG2        7.7530  -16.8670   46.5400 C.3   133  THR133      0.0379
    108  N          6.1590  -19.0870   48.5840 N.am  134  ILE134     -0.1977
    109  CA         6.1730  -19.0460   50.0410 C.3   134  ILE134      0.1596
    110  C          6.4530  -20.4220   50.6370 C.2   134  ILE134      0.2287
    111  O          7.0550  -20.5270   51.7100 O.2   134  ILE134     -0.2864
    112  CB         4.8400  -18.5000   50.6160 C.3   134  ILE134      0.0276
    113  CG1        3.6860  -19.4580   50.3090 C.3   134  ILE134      0.0022
    114  CG2        4.5640  -17.1170   50.0350 C.3   134  ILE134      0.0022
    115  CD1        2.3740  -19.0710   50.9770 C.3   134  ILE134      0.0001
    116  N         -8.1140  -17.7030   36.5100 N.3   179  SER179     -0.1202
    117  CA        -7.8010  -16.3060   36.2590 C.3   179  SER179      0.2020
    118  C         -6.3020  -16.0970   36.0880 C.2   179  SER179      0.2619
    119  O         -5.4830  -16.9220   36.5220 O.2   179  SER179     -0.2717
    120  CB        -8.3010  -15.4400   37.4240 C.3   179  SER179      0.2103
    121  OG        -7.6370  -15.7810   38.6260 O.3   179  SER179     -0.2182
    122  N         -5.9490  -15.0080   35.4160 N.am  180  TRP180     -0.1961
    123  CA        -4.5530  -14.6110   35.2630 C.3   180  TRP180      0.1771
    124  C         -4.5860  -13.1050   35.4880 C.2   180  TRP180      0.2619
    125  O         -5.1810  -12.3550   34.7070 O.2   180  TRP180     -0.2715
    126  CB        -3.9870  -14.9280   33.8820 C.3   180  TRP180      0.0590
    127  CG        -2.5170  -14.6730   33.8860 C.ar  180  TRP180      0.0006
    128  CD1       -1.8780  -13.5650   33.4250 C.ar  180  TRP180      0.0946
    129  CD2       -1.5080  -15.5000   34.4870 C.ar  180  TRP180      0.0152
    130  NE1       -0.5320  -13.6430   33.7020 N.ar  180  TRP180     -0.2442
    131  CE2       -0.2800  -14.8210   34.3540 C.ar  180  TRP180      0.0810
    132  CE3       -1.5280  -16.7470   35.1280 C.ar  180  TRP180      0.0012
    133  CZ2        0.9250  -15.3470   34.8400 C.ar  180  TRP180      0.0191
    134  CZ3       -0.3320  -17.2720   35.6140 C.ar  180  TRP180      0.0001
    135  CH2        0.8790  -16.5680   35.4650 C.ar  180  TRP180      0.0015
    136  N         -3.9510  -12.6780   36.5760 N.am  181  LEU181     -0.1977
    137  CA        -3.9710  -11.2770   36.9730 C.3   181  LEU181      0.1596
    138  C         -2.8340  -10.4450   36.4360 C.2   181  LEU181      0.2287
    139  O         -1.7110  -10.9270   36.3350 O.2   181  LEU181     -0.2864
    140  CB        -3.9470  -11.1890   38.4990 C.3   181  LEU181      0.0297
    141  CG        -4.8550  -12.1500   39.2570 C.3   181  LEU181      0.0022
    142  CD1       -4.7200  -11.9120   40.7590 C.3   181  LEU181      0.0001
    143  CD2       -6.2810  -11.9680   38.7910 C.3   181  LEU181      0.0001
    144  N          1.4580   -6.5000   39.3080 N.3   186  LEU186     -0.1231
    145  CA         1.6560   -7.7230   38.5330 C.3   186  LEU186      0.1693
    146  C          1.8520   -7.3570   37.0570 C.2   186  LEU186      0.2592
    147  O          1.1520   -6.4990   36.5120 O.2   186  LEU186     -0.2718
    148  CB         0.4420   -8.6400   38.6940 C.3   186  LEU186      0.0284
    149  CG         0.1780   -9.0890   40.1310 C.3   186  LEU186      0.0019
    150  CD1       -1.2960   -9.4210   40.3050 C.3   186  LEU186      0.0001
    151  CD2        1.0640  -10.2760   40.4720 C.3   186  LEU186      0.0001
    152  N          2.8050   -8.0220   36.4120 N.am  187  ASP187     -0.1974
    153  CA         3.1110   -7.7330   35.0190 C.3   187  ASP187      0.1709
    154  C          2.2740   -8.5090   34.0170 C.2   187  ASP187      0.2293
    155  O          1.7520   -9.5850   34.3220 O.2   187  ASP187     -0.2864
    156  CB         4.5850   -8.0370   34.7360 C.3   187  ASP187      0.1436
    157  CG         4.9020   -9.5230   34.8290 C.2   187  ASP187      0.3671
    158  OD1        4.8320  -10.0600   35.9430 O.co2 187  ASP187     -0.2456
    159  OD2        5.2040  -10.1590   33.7890 O.co2 187  ASP187     -0.2456
    160  N          2.8260   -3.0220   34.8990 N.3   193  ARG193     -0.1245
    161  CA         2.7910   -3.2210   36.3510 C.3   193  ARG193      0.1563
    162  C          2.0880   -2.0530   37.0430 C.2   193  ARG193      0.2260
    163  O          1.3950   -2.2460   38.0530 O.2   193  ARG193     -0.2867
    164  CB         4.1980   -3.3790   36.9220 C.3   193  ARG193      0.0307
    165  CG         4.8610   -4.7030   36.5710 C.3   193  ARG193      0.0489
    166  CD         6.2100   -4.7830   37.2670 C.3   193  ARG193      0.2205
    167  NE         6.9950   -5.9570   36.8930 N.pl3 193  ARG193     -0.0865
    168  CZ         6.7820   -7.1880   37.3600 C.cat 193  ARG193      0.5346
    169  NH1        5.7970   -7.4250   38.2180 N.pl3 193  ARG193      0.1354
    170  NH2        7.5790   -8.1800   36.9890 N.pl3 193  ARG193      0.1354
@<TRIPOS>BOND
     1   128   130   ar
     2   128   127   ar
     3   130   131   ar
     4   159   157   ar
     5   126   127    1
     6   126   123    1
     7   127   129   ar
     8   154   155    2
     9   154   153    1
    10   131   129   ar
    11   131   133   ar
    12   129   132   ar
    13   125   124    2
    14   156   157    1
    15   156   153    1
    16   157   158   ar
    17   133   135   ar
    18   160   161    1
    19   153   152    1
    20   132   134   ar
    21   123   122    1
    22   123   124    1
    23   122   118   am
    24   135   134   ar
    25   124   136   am
    26   118   117    1
    27   118   119    2
    28   117   116    1
    29   117   120    1
    30   139   138    2
    31   161   164    1
    32   161   162    1
    33   152   146   am
    34   138   137    1
    35   147   146    2
    36   165   164    1
    37   165   166    1
    38   136   137    1
    39   167   166    1
    40   167   168    2
    41   137   140    1
    42   170   168    1
    43   162   163    2
    44   146   145    1
    45   168   169    1
    46   120   121    1
    47   140   141    1
    48   145   148    1
    49   145   144    1
    50   148   149    1
    51   143   141    1
    52   141   142    1
    53    22    21    1
    54    35    34   ar
    55    23    21    1
    56   149   150    1
    57   149   151    1
    58    21    18    1
    59    80    78   ar
    60    34    36   ar
    61    34    33    1
    62    78    79   ar
    63    78    77    1
    64    63    61   ar
    65    63    64   ar
    66    33    32    1
    67    18    17    1
    68    18    19    1
    69    24    25    1
    70    24    19   am
    71    17    11   am
    72    65    64    1
    73    25    26    1
    74    32    29    1
    75    19    20    2
    76    61    59   ar
    77    64    62   ar
    78    98   100   ar
    79    98    96   ar
    80   100    99   ar
    81    77    74    1
    82    85    86    1
    83    85    82    1
    84    29    28    1
    85    29    30    1
    86    11    12    2
    87    11    10    1
    88    26    27    2
    89    59    58    1
    90    59    60   ar
    91    81    82    1
    92    81    75   am
    93    82    83    1
    94    96    95    1
    95    96    97   ar
    96    53    51   ar
    97    99    97   ar
    98    62    60   ar
    99    13    10    1
   100    13    14    1
   101    50    51    1
   102    50    49    1
   103    30    31    2
   104    58    55    1
   105    51    52   ar
   106    74    75    1
   107    74    73    1
   108    10     9    1
   109    95    92    1
   110    75    76    2
   111    16    14    1
   112   106   105    1
   113    15    14    1
   114    73    68   am
   115    57    56    2
   116    83    87   am
   117    83    84    2
   118    49    46    1
   119     9     3   am
   120     4     3    2
   121    55    56    1
   122    55    54    1
   123    87    88    1
   124    56    66   am
   125    92    91    1
   126    92    93    1
   127    54    47   am
   128    91    89   am
   129   105   102    1
   130   105   107    1
   131     3     2    1
   132   101    93   am
   133   101   102    1
   134    68    69    2
   135    68    67    1
   136    44    42   ar
   137    47    48    2
   138    47    46    1
   139    93    94    2
   140   102   103    1
   141    46    45    1
   142    66    67    1
   143    43    42   ar
   144    67    70    1
   145    45    39   am
   146    88    89    1
   147    89    90    2
   148    42    41    1
   149     5     2    1
   150     5     6    1
   151     2     1    1
   152   103   104    2
   153   103   108   am
   154    39    38    1
   155    39    40    2
   156     7     6    1
   157    70    71    1
   158    70    72    1
   159    41    38    1
   160     6     8    1
   161    38    37    1
   162   108   109    1
   163   114   112    1
   164   109   112    1
   165   109   110    1
   166   113   112    1
   167   113   115    1
   168   110   111    2
