@<TRIPOS>MOLECULE
tmp/1dqxC00.pdb
 187 176 0 0 0
SMALL
GASTEIGER

@<TRIPOS>ATOM
      1  N         29.6740  108.0610  133.9690 N.3    35  SER35      -0.1217
      2  CA        28.2310  107.9860  133.8330 C.3    35  SER35       0.1889
      3  C         27.7790  109.0730  132.8550 C.2    35  SER35       0.2288
      4  O         27.1360  110.0510  133.2300 O.2    35  SER35      -0.2866
      5  CB        27.5690  108.1680  135.1870 C.3    35  SER35       0.2089
      6  OG        26.1790  108.0170  135.0520 O.3    35  SER35      -0.2183
      7  N         25.5140  110.4460  130.9690 N.3    37  ASP37      -0.1239
      8  CA        24.0830  110.4600  130.7490 C.3    37  ASP37       0.1674
      9  C         23.6370  111.5410  129.7820 C.2    37  ASP37       0.2266
     10  O         23.2100  112.6250  130.1830 O.2    37  ASP37      -0.2867
     11  CB        23.3480  110.6250  132.0710 C.3    37  ASP37       0.1410
     12  CG        23.7890  109.6170  133.1050 C.2    37  ASP37       0.3668
     13  OD1       23.7730  108.4070  132.8060 O.co2  37  ASP37      -0.2456
     14  OD2       24.1500  110.0440  134.2220 O.co2  37  ASP37      -0.2456
     15  N         28.8920  103.2980  133.2430 N.3    59  LYS59      -0.1245
     16  CA        27.5500  103.1120  133.7590 C.3    59  LYS59       0.1561
     17  C         26.5870  103.7940  132.7920 C.2    59  LYS59       0.2260
     18  O         26.6810  105.0060  132.5350 O.2    59  LYS59      -0.2867
     19  CB        27.4310  103.7290  135.1480 C.3    59  LYS59       0.0271
     20  CG        26.1380  103.4010  135.8400 C.3    59  LYS59       0.0035
     21  CD        25.9160  104.2780  137.0510 C.3    59  LYS59       0.0206
     22  CE        25.4400  105.6330  136.6270 C.3    59  LYS59       0.1093
     23  NZ        24.1850  105.5590  135.8030 N.3    59  LYS59      -0.1314
     24  N         22.5120  104.4420  130.9740 N.3    61  HIS61      -0.1241
     25  CA        21.0870  104.6600  131.1620 C.3    61  HIS61       0.1621
     26  C         20.5520  104.7210  129.7610 C.2    61  HIS61       0.2264
     27  O         20.3070  105.8010  129.2370 O.2    61  HIS61      -0.2867
     28  CB        20.8290  105.9900  131.8590 C.3    61  HIS61       0.0745
     29  CG        20.7010  105.8680  133.3420 C.ar   61  HIS61       0.0817
     30  ND1       21.0610  106.8750  134.2090 N.ar   61  HIS61      -0.2268
     31  CD2       20.2120  104.8670  134.1080 C.ar   61  HIS61       0.1154
     32  CE1       20.7970  106.5010  135.4460 C.ar   61  HIS61       0.1986
     33  NE2       20.2800  105.2870  135.4130 N.ar   61  HIS61      -0.2212
     34  N         28.0120   98.7230  132.5380 N.3    89  PHE89      -0.1241
     35  CA        27.0640   98.6490  133.6320 C.3    89  PHE89       0.1605
     36  C         25.7830   99.4620  133.3560 C.2    89  PHE89       0.2264
     37  O         25.7870  100.6970  133.3780 O.2    89  PHE89      -0.2867
     38  CB        27.7910   99.0990  134.9150 C.3    89  PHE89       0.0534
     39  CG        26.8830   99.4780  136.0500 C.ar   89  PHE89      -0.0203
     40  CD1       25.6580   98.8330  136.2490 C.ar   89  PHE89      -0.0042
     41  CD2       27.2590  100.4770  136.9320 C.ar   89  PHE89      -0.0042
     42  CE1       24.8240   99.1840  137.3060 C.ar   89  PHE89      -0.0003
     43  CE2       26.4400  100.8330  137.9920 C.ar   89  PHE89      -0.0003
     44  CZ        25.2160  100.1840  138.1770 C.ar   89  PHE89      -0.0000
     45  N         22.6930  100.9470  134.5350 N.3    91  ASP91      -0.1239
     46  CA        22.0490  101.3990  135.7660 C.3    91  ASP91       0.1674
     47  C         20.5410  101.4280  135.6070 C.2    91  ASP91       0.2266
     48  O         19.9270  102.4910  135.6460 O.2    91  ASP91      -0.2867
     49  CB        22.5870  102.7950  136.1060 C.3    91  ASP91       0.1410
     50  CG        22.0630  103.3360  137.4330 C.2    91  ASP91       0.3668
     51  OD1       21.4700  102.5640  138.2130 O.co2  91  ASP91      -0.2456
     52  OD2       22.2620  104.5420  137.7050 O.co2  91  ASP91      -0.2456
     53  N         18.3230   99.8190  137.6550 N.3    93  LYS93      -0.1245
     54  CA        17.6780   99.8080  138.9670 C.3    93  LYS93       0.1561
     55  C         16.3550   99.0370  138.9460 C.2    93  LYS93       0.2260
     56  O         15.2770   99.5900  139.2070 O.2    93  LYS93      -0.2867
     57  CB        17.4210  101.2350  139.4380 C.3    93  LYS93       0.0271
     58  CG        18.6770  102.0810  139.5550 C.3    93  LYS93       0.0035
     59  CD        18.4000  103.3270  140.3840 C.3    93  LYS93       0.0206
     60  CE        19.6560  104.1200  140.5790 C.3    93  LYS93       0.1093
     61  NZ        20.2910  104.3860  139.2470 N.3    93  LYS93      -0.1314
     62  N         21.8980   96.4630  138.3500 N.3   120  ASN120     -0.1240
     63  CA        21.5880   96.6220  139.7510 C.3   120  ASN120      0.1653
     64  C         20.0940   96.5120  140.0270 C.2   120  ASN120      0.2266
     65  O         19.2680   96.5490  139.1070 O.2   120  ASN120     -0.2867
     66  CB        22.1350   97.9710  140.2470 C.3   120  ASN120      0.1155
     67  CG        21.5840   99.1560  139.4630 C.2   120  ASN120      0.2627
     68  OD1       20.7150   99.0070  138.6120 O.2   120  ASN120     -0.2716
     69  ND2       22.0900  100.3420  139.7590 N.am  120  ASN120     -0.0877
     70  N         21.4170   98.4230  145.4260 N.3   150  LEU150     -0.1245
     71  CA        21.3550   99.8150  145.8530 C.3   150  LEU150      0.1561
     72  C         21.0770   99.9160  147.3450 C.2   150  LEU150      0.2260
     73  O         19.9160   99.8590  147.7790 O.2   150  LEU150     -0.2867
     74  CB        20.2830  100.5340  145.0540 C.3   150  LEU150      0.0270
     75  CG        20.7140  100.6610  143.5910 C.3   150  LEU150      0.0019
     76  CD1       19.5180  100.6180  142.6750 C.3   150  LEU150      0.0001
     77  CD2       21.4870  101.9430  143.4030 C.3   150  LEU150      0.0001
     78  N         22.4580  102.5440  149.4860 N.3   152  GLU152     -0.1231
     79  CA        22.2290  103.9310  149.8580 C.3   152  GLU152      0.1699
     80  C         22.2700  104.7810  148.6130 C.2   152  GLU152      0.2592
     81  O         22.9610  104.4530  147.6540 O.2   152  GLU152     -0.2718
     82  CB        23.3020  104.4250  150.8170 C.3   152  GLU152      0.0402
     83  CG        23.6750  103.4500  151.8870 C.3   152  GLU152      0.1161
     84  CD        24.7440  104.0070  152.7810 C.2   152  GLU152      0.3649
     85  OE1       24.4080  104.4910  153.8820 O.co2 152  GLU152     -0.2457
     86  OE2       25.9200  103.9780  152.3690 O.co2 152  GLU152     -0.2457
     87  N         21.5270  105.8790  148.6410 N.am  153  LEU153     -0.1966
     88  CA        21.4610  106.8100  147.5250 C.3   153  LEU153      0.1728
     89  C         22.2050  108.0870  147.9180 C.2   153  LEU153      0.2617
     90  O         22.5880  108.2340  149.0690 O.2   153  LEU153     -0.2715
     91  CB        20.0010  107.1060  147.2150 C.3   153  LEU153      0.0311
     92  CG        19.1760  106.0190  146.5050 C.3   153  LEU153      0.0022
     93  CD1       19.8670  104.6380  146.5410 C.3   153  LEU153      0.0001
     94  CD2       17.7870  105.9920  147.1470 C.3   153  LEU153      0.0001
     95  N         22.4220  109.0080  146.9850 N.am  154  SER154     -0.1936
     96  CA        23.1350  110.2380  147.3210 C.3   154  SER154      0.2055
     97  C         22.2620  111.4780  147.2430 C.2   154  SER154      0.2643
     98  O         22.6990  112.5670  147.5940 O.2   154  SER154     -0.2714
     99  CB        24.3340  110.4200  146.3980 C.3   154  SER154      0.2130
    100  OG        23.9060  110.6690  145.0780 O.3   154  SER154     -0.2179
    101  N         21.0250  111.3080  146.7910 N.am  155  CYS155     -0.1967
    102  CA        20.1100  112.4270  146.6470 C.3   155  CYS155      0.1712
    103  C         19.4100  112.8090  147.9450 C.2   155  CYS155      0.2296
    104  O         19.2530  111.9980  148.8560 O.2   155  CYS155     -0.2864
    105  CB        19.0720  112.1040  145.5810 C.3   155  CYS155      0.0983
    106  SG        18.1130  110.6730  146.0110 S.3   155  CYS155     -0.0798
    107  N         25.8140   99.7570  145.4690 N.3   183  ILE183     -0.1245
    108  CA        25.9140  101.1290  145.0290 C.3   183  ILE183      0.1561
    109  C         25.6090  101.7150  146.4100 C.2   183  ILE183      0.2260
    110  O         24.4740  101.6350  146.8960 O.2   183  ILE183     -0.2867
    111  CB        24.8120  101.4940  144.0110 C.3   183  ILE183      0.0252
    112  CG1       25.1350  100.8560  142.6540 C.3   183  ILE183      0.0019
    113  CG2       24.6910  103.0080  143.8890 C.3   183  ILE183      0.0019
    114  CD1       26.4280  101.3670  142.0490 C.3   183  ILE183      0.0001
    115  N         28.0890  106.8970  143.3800 N.3   202  PRO202     -0.2102
    116  CA        27.7150  107.9890  142.4870 C.3   202  PRO202      0.1504
    117  C         27.5470  109.2140  143.3470 C.2   202  PRO202      0.2576
    118  O         27.6520  109.1170  144.5570 O.2   202  PRO202     -0.2718
    119  CB        26.3980  107.5070  141.9220 C.3   202  PRO202      0.0282
    120  CG        25.7770  106.9390  143.1370 C.3   202  PRO202      0.0208
    121  CD        26.8940  106.1280  143.7550 C.3   202  PRO202      0.0893
    122  N         27.2700  110.3610  142.7440 N.am  203  GLY203     -0.1943
    123  CA        27.1230  111.5670  143.5350 C.3   203  GLY203      0.2014
    124  C         28.4980  112.0680  143.9470 C.2   203  GLY203      0.2638
    125  O         28.7090  112.4920  145.0870 O.2   203  GLY203     -0.2714
    126  N         29.4440  111.9850  143.0150 N.am  204  VAL204     -0.1977
    127  CA        30.8120  112.4430  143.2370 C.3   204  VAL204      0.1596
    128  C         31.1190  113.5850  142.2680 C.2   204  VAL204      0.2287
    129  O         30.8400  113.5120  141.0710 O.2   204  VAL204     -0.2864
    130  CB        31.8510  111.3240  143.0020 C.3   204  VAL204      0.0276
    131  CG1       33.2640  111.8600  143.2050 C.3   204  VAL204      0.0022
    132  CG2       31.6160  110.2440  143.9130 C.3   204  VAL204      0.0022
    133  N         20.1200  116.0940  143.7690 N.3   215  GLN215     -0.1245
    134  CA        21.5040  115.6300  143.8410 C.3   215  GLN215      0.1566
    135  C         22.3640  116.3400  144.8840 C.2   215  GLN215      0.2260
    136  O         22.0840  117.4620  145.3000 O.2   215  GLN215     -0.2867
    137  CB        22.1990  115.7670  142.4860 C.3   215  GLN215      0.0367
    138  CG        22.5170  114.4600  141.7830 C.3   215  GLN215      0.0905
    139  CD        23.3780  113.4950  142.5940 C.2   215  GLN215      0.2608
    140  OE1       24.3570  112.9550  142.0880 O.2   215  GLN215     -0.2717
    141  NE2       22.9990  113.2570  143.8370 N.am  215  GLN215     -0.0878
    142  N         26.7400  116.3080  145.7980 N.3   217  TYR217     -0.1241
    143  CA        28.0370  115.7230  145.4880 C.3   217  TYR217      0.1605
    144  C         29.0210  115.7170  146.6480 C.2   217  TYR217      0.2264
    145  O         28.9740  116.5830  147.5170 O.2   217  TYR217     -0.2867
    146  CB        28.6700  116.4390  144.2940 C.3   217  TYR217      0.0534
    147  CG        27.8620  116.3440  143.0260 C.ar  217  TYR217     -0.0201
    148  CD1       27.2480  117.4690  142.4890 C.ar  217  TYR217     -0.0009
    149  CD2       27.7060  115.1290  142.3550 C.ar  217  TYR217     -0.0009
    150  CE1       26.4960  117.3950  141.3200 C.ar  217  TYR217      0.0417
    151  CE2       26.9530  115.0480  141.1800 C.ar  217  TYR217      0.0417
    152  CZ        26.3520  116.1880  140.6770 C.ar  217  TYR217      0.1957
    153  OH        25.5850  116.1290  139.5430 O.3   217  TYR217     -0.2866
    154  N         31.6460  106.9500  140.7010 N.3   232  ILE232     -0.1231
    155  CA        30.7640  107.1660  139.5580 C.3   232  ILE232      0.1692
    156  C         30.5200  108.6660  139.3600 C.2   232  ILE232      0.2592
    157  O         29.8150  109.2960  140.1450 O.2   232  ILE232     -0.2718
    158  CB        29.4250  106.4380  139.7920 C.3   232  ILE232      0.0266
    159  CG1       29.7050  104.9440  140.0390 C.3   232  ILE232      0.0019
    160  CG2       28.4580  106.6880  138.6120 C.3   232  ILE232      0.0020
    161  CD1       28.4860  104.1430  140.4880 C.3   232  ILE232      0.0001
    162  N         31.1160  109.2280  138.3090 N.am  233  VAL233     -0.1966
    163  CA        30.9980  110.6520  138.0010 C.3   233  VAL233      0.1727
    164  C         30.3090  110.8730  136.6550 C.2   233  VAL233      0.2617
    165  O         30.7100  110.2940  135.6510 O.2   233  VAL233     -0.2715
    166  CB        32.3920  111.3230  137.9420 C.3   233  VAL233      0.0290
    167  CG1       32.2390  112.8250  137.9280 C.3   233  VAL233      0.0023
    168  CG2       33.2560  110.8720  139.1280 C.3   233  VAL233      0.0023
    169  N         29.2790  111.7210  136.6460 N.am  234  GLY234     -0.1940
    170  CA        28.5370  112.0240  135.4310 C.3   234  GLY234      0.2014
    171  C         28.7120  113.4550  134.9390 C.2   234  GLY234      0.2639
    172  O         29.6830  113.7510  134.2350 O.2   234  GLY234     -0.2714
    173  N         27.7810  114.3410  135.3090 N.am  235  ARG235     -0.1963
    174  CA        27.8240  115.7530  134.9070 C.3   235  ARG235      0.1729
    175  C         29.1550  116.4370  135.2710 C.2   235  ARG235      0.2616
    176  O         29.5170  117.4730  134.7110 O.2   235  ARG235     -0.2715
    177  CB        26.6570  116.5050  135.5470 C.3   235  ARG235      0.0348
    178  CG        25.3340  115.7790  135.3990 C.3   235  ARG235      0.0492
    179  CD        24.1220  116.7030  135.3600 C.3   235  ARG235      0.2205
    180  NE        23.4220  116.9130  136.6380 N.pl3 235  ARG235     -0.0865
    181  CZ        22.9740  115.9510  137.4450 C.cat 235  ARG235      0.5346
    182  NH1       23.1610  114.6840  137.1370 N.pl3 235  ARG235      0.1354
    183  NH2       22.2820  116.2540  138.5380 N.pl3 235  ARG235      0.1354
    184  N         29.8850  115.8460  136.2100 N.am  236  GLY236     -0.1955
    185  CA        31.1550  116.4080  136.6100 C.3   236  GLY236      0.1869
    186  C         32.2200  116.2130  135.5530 C.2   236  GLY236      0.2309
    187  O         33.2780  116.8350  135.6170 O.2   236  GLY236     -0.2863
@<TRIPOS>BOND
     1    27    26    2
     2    26    25    1
     3     9    10    2
     4     9     8    1
     5     8     7    1
     6     8    11    1
     7    24    25    1
     8    25    28    1
     9    28    29    1
    10    11    12    1
    11    18    17    2
    12    34    35    1
    13    17    16    1
    14    13    12   ar
    15     3     4    2
    16     3     2    1
    17    12    14   ar
    18    15    16    1
    19    29    31   ar
    20    29    30   ar
    21    36    37    2
    22    36    35    1
    23    35    38    1
    24    16    19    1
    25     2     1    1
    26     2     5    1
    27    31    33   ar
    28    30    32   ar
    29   172   171    2
    30    45    46    1
    31   176   175    2
    32   174   175    1
    33   174   173    1
    34   174   177    1
    35    38    39    1
    36   171   173   am
    37   171   170    1
    38     6     5    1
    39    19    20    1
    40   175   184   am
    41   179   178    1
    42   179   180    1
    43   178   177    1
    44    33    32   ar
    45   170   169    1
    46   186   187    2
    47   186   185    1
    48    47    48    2
    49    47    46    1
    50   165   164    2
    51    46    49    1
    52    23    22    1
    53    20    21    1
    54    39    40   ar
    55    39    41   ar
    56    49    50    1
    57   184   185    1
    58    40    42   ar
    59    22    21    1
    60   180   181    2
    61   169   164   am
    62   164   163    1
    63    41    43   ar
    64   182   181    1
    65    42    44   ar
    66    50    52   ar
    67    50    51   ar
    68   181   183    1
    69    53    54    1
    70   167   166    1
    71   166   163    1
    72   166   168    1
    73    43    44   ar
    74   163   162    1
    75   162   156   am
    76    62    63    1
    77   160   158    1
    78    68    67    2
    79    55    54    1
    80    55    56    2
    81    54    57    1
    82    65    64    2
    83    61    60    1
    84   156   155    1
    85   156   157    2
    86    57    58    1
    87    67    69   am
    88    67    66    1
    89   153   152    1
    90    58    59    1
    91   155   158    1
    92   155   154    1
    93    63    64    1
    94    63    66    1
    95   158   159    1
    96   159   161    1
    97    59    60    1
    98   152   151   ar
    99   152   150   ar
   100   129   128    2
   101   151   149   ar
   102   150   148   ar
   103   138   137    1
   104   138   139    1
   105   119   116    1
   106   119   120    1
   107   114   112    1
   108   140   139    2
   109   128   127    1
   110   149   147   ar
   111   137   134    1
   112   116   117    1
   113   116   115    1
   114   148   147   ar
   115   139   141   am
   116   112   111    1
   117    76    75    1
   118   122   117   am
   119   122   123    1
   120   130   131    1
   121   130   127    1
   122   130   132    1
   123   126   127    1
   124   126   124   am
   125   147   146    1
   126   120   121    1
   127   117   118    2
   128   115   121    1
   129    77    75    1
   130   123   124    1
   131    75    74    1
   132   133   134    1
   133   134   135    1
   134   113   111    1
   135   124   125    2
   136   111   108    1
   137   146   143    1
   138   135   136    2
   139   108   107    1
   140   108   109    1
   141    74    71    1
   142   100    99    1
   143    70    71    1
   144   143   142    1
   145   143   144    1
   146   105   106    1
   147   105   102    1
   148    71    72    1
   149    99    96    1
   150   109   110    2
   151    92    93    1
   152    92    94    1
   153    92    91    1
   154   102   101    1
   155   102   103    1
   156   144   145    2
   157   101    97   am
   158    95    96    1
   159    95    89   am
   160    91    88    1
   161    97    96    1
   162    97    98    2
   163    72    73    2
   164    88    89    1
   165    88    87    1
   166    81    80    2
   167    89    90    2
   168   103   104    2
   169    80    87   am
   170    80    79    1
   171    78    79    1
   172    79    82    1
   173    82    83    1
   174    83    84    1
   175    86    84   ar
   176    84    85   ar
