@<TRIPOS>MOLECULE
tmp/1dqyA02.pdb
 74 73 0 0 0
SMALL
GASTEIGER

@<TRIPOS>ATOM
      1  N         73.2140    7.2400   -2.0460 N.3   160  PRO160     -0.2102
      2  CA        73.0530    8.6610   -2.3730 C.3   160  PRO160      0.1504
      3  C         71.6780    9.1750   -1.9470 C.2   160  PRO160      0.2576
      4  O         71.5470   10.2910   -1.4540 O.2   160  PRO160     -0.2718
      5  CB        73.2480    8.6920   -3.8890 C.3   160  PRO160      0.0282
      6  CG        74.2220    7.5700   -4.1170 C.3   160  PRO160      0.0208
      7  CD        73.6930    6.4770   -3.2130 C.3   160  PRO160      0.0893
      8  N         70.6550    8.3480   -2.1320 N.am  161  THR161     -0.1953
      9  CA        69.3040    8.7340   -1.7580 C.3   161  THR161      0.1897
     10  C         69.1560    8.8240   -0.2390 C.2   161  THR161      0.2313
     11  O         68.6310    9.8070    0.2850 O.2   161  THR161     -0.2863
     12  CB        68.2710    7.7370   -2.3240 C.3   161  THR161      0.1794
     13  OG1       68.3220    7.7700   -3.7560 O.3   161  THR161     -0.2208
     14  CG2       66.8620    8.1020   -1.8670 C.3   161  THR161      0.0378
     15  N         70.9210   11.7910    1.0350 N.3   164  GLY164     -0.1210
     16  CA        70.1850   12.9970    0.6980 C.3   164  GLY164      0.1956
     17  C         69.0020   13.1660    1.6320 C.2   164  GLY164      0.2611
     18  O         68.6570   14.2830    2.0200 O.2   164  GLY164     -0.2717
     19  N         68.3740   12.0490    1.9910 N.am  165  LEU165     -0.1979
     20  CA        67.2320   12.0760    2.8990 C.3   165  LEU165      0.1596
     21  C         67.6680   12.5240    4.2870 C.2   165  LEU165      0.2287
     22  O         67.0140   13.3570    4.9110 O.2   165  LEU165     -0.2864
     23  CB        66.5880   10.6900    2.9900 C.3   165  LEU165      0.0297
     24  CG        65.7330   10.2590    1.7970 C.3   165  LEU165      0.0022
     25  CD1       65.3960    8.7780    1.9200 C.3   165  LEU165      0.0001
     26  CD2       64.4650   11.1110    1.7420 C.3   165  LEU165      0.0001
     27  N         70.9570   20.1000    1.0820 N.3   174  ASN174     -0.1225
     28  CA        70.8250   19.4520   -0.2150 C.3   174  ASN174      0.1785
     29  C         72.0730   18.6830   -0.6550 C.2   174  ASN174      0.2597
     30  O         73.0960   19.2810   -0.9820 O.2   174  ASN174     -0.2718
     31  CB        70.4700   20.5310   -1.2470 C.3   174  ASN174      0.1169
     32  CG        69.9930   19.9620   -2.5650 C.2   174  ASN174      0.2627
     33  OD1       69.3820   20.6730   -3.3670 O.2   174  ASN174     -0.2716
     34  ND2       70.2690   18.6920   -2.8050 N.am  174  ASN174     -0.0877
     35  N         71.9720   17.3560   -0.6740 N.am  175  ALA175     -0.1966
     36  CA        73.0860   16.5080   -1.0820 C.3   175  ALA175      0.1728
     37  C         73.5470   16.8320   -2.5010 C.2   175  ALA175      0.2616
     38  O         74.7100   16.6210   -2.8440 O.2   175  ALA175     -0.2715
     39  CB        72.6870   15.0400   -0.9910 C.3   175  ALA175      0.0334
     40  N         72.6360   17.3370   -3.3280 N.am  176  ASN176     -0.1972
     41  CA        72.9870   17.6790   -4.7030 C.3   176  ASN176      0.1688
     42  C         73.9110   18.8950   -4.7350 C.2   176  ASN176      0.2292
     43  O         74.7850   18.9950   -5.5930 O.2   176  ASN176     -0.2864
     44  CB        71.7260   17.9490   -5.5330 C.3   176  ASN176      0.1181
     45  CG        70.8740   16.7020   -5.7260 C.2   176  ASN176      0.2629
     46  OD1       71.3450   15.6810   -6.2300 O.2   176  ASN176     -0.2716
     47  ND2       69.6120   16.7820   -5.3280 N.am  176  ASN176     -0.0877
     48  N         74.5420   15.5340   -8.6090 N.3   181  PRO181     -0.2102
     49  CA        73.6670   14.3660   -8.7510 C.3   181  PRO181      0.1504
     50  C         74.5100   13.1330   -8.4490 C.2   181  PRO181      0.2576
     51  O         75.7370   13.2010   -8.5120 O.2   181  PRO181     -0.2718
     52  CB        73.2280   14.4430  -10.2120 C.3   181  PRO181      0.0282
     53  CG        74.4080   15.0880  -10.8820 C.3   181  PRO181      0.0208
     54  CD        74.7620   16.1900   -9.9110 C.3   181  PRO181      0.0893
     55  N         73.8720   12.0110   -8.1300 N.am  182  SER182     -0.1953
     56  CA        74.6220   10.8040   -7.7940 C.3   182  SER182      0.1924
     57  C         75.5840   10.3440   -8.8850 C.2   182  SER182      0.2314
     58  O         76.5220    9.6030   -8.6080 O.2   182  SER182     -0.2863
     59  CB        73.6670    9.6630   -7.4290 C.3   182  SER182      0.2116
     60  OG        72.8410    9.3090   -8.5210 O.3   182  SER182     -0.2180
     61  N         80.7470   11.9180   -5.8860 N.3   187  TRP187     -0.1241
     62  CA        80.2420   10.8500   -5.0270 C.3   187  TRP187      0.1605
     63  C         81.2560    9.7230   -4.8630 C.2   187  TRP187      0.2264
     64  O         81.4610    9.2310   -3.7580 O.2   187  TRP187     -0.2867
     65  CB        78.9110   10.3030   -5.5580 C.3   187  TRP187      0.0550
     66  CG        77.7710   11.2250   -5.2550 C.ar  187  TRP187      0.0003
     67  CD1       77.3490   12.2900   -6.0040 C.ar  187  TRP187      0.0946
     68  CD2       76.9680   11.2260   -4.0670 C.ar  187  TRP187      0.0152
     69  NE1       76.3350   12.9570   -5.3480 N.ar  187  TRP187     -0.2442
     70  CE2       76.0840   12.3250   -4.1580 C.ar  187  TRP187      0.0810
     71  CE3       76.9120   10.4060   -2.9310 C.ar  187  TRP187      0.0012
     72  CZ2       75.1530   12.6260   -3.1540 C.ar  187  TRP187      0.0191
     73  CZ3       75.9860   10.7070   -1.9320 C.ar  187  TRP187      0.0001
     74  CH2       75.1210   11.8070   -2.0520 C.ar  187  TRP187      0.0015
@<TRIPOS>BOND
     1    53    52    1
     2    53    54    1
     3    52    49    1
     4    54    48    1
     5    57    58    2
     6    57    56    1
     7    49    48    1
     8    49    50    1
     9    60    59    1
    10    51    50    2
    11    50    55   am
    12    55    56    1
    13    56    59    1
    14    46    45    2
    15    67    69   ar
    16    67    66   ar
    17    61    62    1
    18    45    44    1
    19    45    47   am
    20    43    42    2
    21    65    66    1
    22    65    62    1
    23    44    41    1
    24    69    70   ar
    25    66    68   ar
    26    62    63    1
    27    63    64    2
    28    42    41    1
    29    41    40    1
    30    70    68   ar
    31    70    72   ar
    32     6     5    1
    33     6     7    1
    34    68    71   ar
    35     5     2    1
    36    13    12    1
    37    33    32    2
    38    40    37   am
    39     7     1    1
    40    72    74   ar
    41    71    73   ar
    42    38    37    2
    43    34    32   am
    44    32    31    1
    45    37    36    1
    46     2     1    1
    47     2     3    1
    48    12    14    1
    49    12     9    1
    50     8     3   am
    51     8     9    1
    52    74    73   ar
    53     3     4    2
    54     9    10    1
    55    31    28    1
    56    36    39    1
    57    36    35    1
    58    30    29    2
    59    35    29   am
    60    29    28    1
    61    10    11    2
    62    28    27    1
    63    16    15    1
    64    16    17    1
    65    17    19   am
    66    17    18    2
    67    26    24    1
    68    24    25    1
    69    24    23    1
    70    19    20    1
    71    20    23    1
    72    20    21    1
    73    21    22    2
