@<TRIPOS>MOLECULE
tmp/1dqyA00.pdb
 113 110 0 0 0
SMALL
GASTEIGER

@<TRIPOS>ATOM
      1  N         78.5510   14.2720   14.3320 N.3    40  GLY40      -0.1210
      2  CA        77.5550   13.5600   13.5570 C.3    40  GLY40       0.1956
      3  C         76.7420   14.4810   12.6640 C.2    40  GLY40       0.2612
      4  O         76.9670   15.6920   12.6180 O.2    40  GLY40      -0.2717
      5  N         75.7850   13.8900   11.9600 N.am   41  LEU41      -0.1965
      6  CA        74.9070   14.5980   11.0290 C.3    41  LEU41       0.1728
      7  C         74.2520   15.8680   11.5770 C.2    41  LEU41       0.2616
      8  O         74.1400   16.8740   10.8690 O.2    41  LEU41      -0.2715
      9  CB        73.8110   13.6460   10.5560 C.3    41  LEU41       0.0311
     10  CG        72.8740   14.1400    9.4550 C.3    41  LEU41       0.0022
     11  CD1       73.5790   14.0710    8.1010 C.3    41  LEU41       0.0001
     12  CD2       71.6190   13.2820    9.4500 C.3    41  LEU41       0.0001
     13  N         73.8190   15.8220   12.8340 N.am   42  ARG42      -0.1977
     14  CA        73.1440   16.9630   13.4420 C.3    42  ARG42       0.1597
     15  C         74.0510   17.8730   14.2600 C.2    42  ARG42       0.2287
     16  O         73.6070   18.5120   15.2130 O.2    42  ARG42      -0.2864
     17  CB        71.9790   16.4640   14.2970 C.3    42  ARG42       0.0334
     18  CG        71.0130   15.5960   13.5040 C.3    42  ARG42       0.0492
     19  CD        69.8610   15.0830   14.3520 C.3    42  ARG42       0.2205
     20  NE        69.1130   14.0490   13.6410 N.pl3  42  ARG42      -0.0865
     21  CZ        68.3180   14.2760   12.5990 C.cat  42  ARG42       0.5346
     22  NH1       68.1520   15.5080   12.1400 N.pl3  42  ARG42       0.1354
     23  NH2       67.7050   13.2610   12.0050 N.pl3  42  ARG42       0.1354
     24  N         82.0160    9.5030   13.3400 N.3   124  LEU124     -0.1231
     25  CA        80.9710    8.5390   13.6160 C.3   124  LEU124      0.1693
     26  C         79.7810    8.8510   12.7340 C.2   124  LEU124      0.2593
     27  O         79.5110   10.0160   12.4370 O.2   124  LEU124     -0.2718
     28  CB        80.5650    8.5870   15.1010 C.3   124  LEU124      0.0284
     29  CG        79.8610    9.7930   15.7400 C.3   124  LEU124      0.0019
     30  CD1       80.6370   11.0740   15.4590 C.3   124  LEU124      0.0001
     31  CD2       78.4430    9.9070   15.2170 C.3   124  LEU124      0.0001
     32  N         79.0840    7.8090   12.3010 N.am  125  SER125     -0.1938
     33  CA        77.9080    7.9950   11.4700 C.3   125  SER125      0.2055
     34  C         78.2600    8.8960   10.2780 C.2   125  SER125      0.2642
     35  O         79.0660    8.5090    9.4400 O.2   125  SER125     -0.2714
     36  CB        76.8120    8.6110   12.3330 C.3   125  SER125      0.2130
     37  OG        75.5880    8.7370   11.6480 O.3   125  SER125     -0.2179
     38  N         77.6830   10.0960   10.2030 N.am  126  MET126     -0.1976
     39  CA        77.9870   10.9840    9.0780 C.3   126  MET126      0.1605
     40  C         79.4800   11.1280    8.7920 C.2   126  MET126      0.2287
     41  O         79.9200   10.9570    7.6520 O.2   126  MET126     -0.2864
     42  CB        77.4180   12.3940    9.2980 C.3   126  MET126      0.0413
     43  CG        77.9010   13.3890    8.2270 C.3   126  MET126      0.0598
     44  SD        77.4740   15.1270    8.5090 S.3   126  MET126     -0.1393
     45  CE        78.7330   15.5980    9.7170 C.3   126  MET126      0.0692
     46  N         79.0410    5.5610    6.9140 N.3   151  PHE151     -0.1241
     47  CA        78.4110    5.1810    5.6550 C.3   151  PHE151      0.1605
     48  C         79.5890    5.0900    4.6890 C.2   151  PHE151      0.2264
     49  O         80.0000    6.0830    4.0840 O.2   151  PHE151     -0.2867
     50  CB        77.4110    6.2630    5.2360 C.3   151  PHE151      0.0534
     51  CG        76.5000    6.7000    6.3550 C.ar  151  PHE151     -0.0203
     52  CD1       75.8690    5.7570    7.1650 C.ar  151  PHE151     -0.0042
     53  CD2       76.2820    8.0510    6.6100 C.ar  151  PHE151     -0.0042
     54  CE1       75.0320    6.1560    8.2200 C.ar  151  PHE151     -0.0003
     55  CE2       75.4510    8.4570    7.6570 C.ar  151  PHE151     -0.0003
     56  CZ        74.8260    7.5080    8.4630 C.ar  151  PHE151     -0.0000
     57  N         68.7770   11.9670    4.7680 N.3   166  ALA166     -0.1245
     58  CA        69.2860   12.3200    6.0850 C.3   166  ALA166      0.1562
     59  C         69.6630   13.7980    6.1400 C.2   166  ALA166      0.2260
     60  O         69.3110   14.5070    7.0800 O.2   166  ALA166     -0.2867
     61  CB        70.4980   11.4480    6.4300 C.3   166  ALA166      0.0290
     62  N         70.9870    6.0950   17.8930 N.3   217  ASP217     -0.1225
     63  CA        71.3060    7.4910   17.6190 C.3   217  ASP217      0.1805
     64  C         71.4820    7.6800   16.1190 C.2   217  ASP217      0.2597
     65  O         71.6220    8.8020   15.6320 O.2   217  ASP217     -0.2718
     66  CB        72.5730    7.9130   18.3650 C.3   217  ASP217      0.1424
     67  CG        72.3660    7.9660   19.8650 C.2   217  ASP217      0.3668
     68  OD1       71.3050    8.4700   20.2890 O.co2 217  ASP217     -0.2456
     69  OD2       73.2570    7.5150   20.6170 O.co2 217  ASP217     -0.2456
     70  N         71.4610    6.5670   15.3930 N.am  218  LEU218     -0.1979
     71  CA        71.6010    6.5840   13.9450 C.3   218  LEU218      0.1596
     72  C         70.2230    6.8260   13.3310 C.2   218  LEU218      0.2287
     73  O         70.0990    7.4170   12.2580 O.2   218  LEU218     -0.2864
     74  CB        72.1480    5.2390   13.4580 C.3   218  LEU218      0.0297
     75  CG        72.7290    5.2030   12.0470 C.3   218  LEU218      0.0022
     76  CD1       74.0920    5.8790   12.0650 C.3   218  LEU218      0.0001
     77  CD2       72.8620    3.7670   11.5690 C.3   218  LEU218      0.0001
     78  N         68.1350    1.7690    6.5020 N.3   228  LEU228     -0.1245
     79  CA        69.4010    2.4910    6.5680 C.3   228  LEU228      0.1561
     80  C         70.3560    1.8340    7.5620 C.2   228  LEU228      0.2260
     81  O         71.5320    1.6310    7.2610 O.2   228  LEU228     -0.2867
     82  CB        69.1590    3.9480    6.9740 C.3   228  LEU228      0.0270
     83  CG        70.3880    4.8000    7.3030 C.3   228  LEU228      0.0019
     84  CD1       71.3470    4.8100    6.1310 C.3   228  LEU228      0.0001
     85  CD2       69.9480    6.2200    7.6380 C.3   228  LEU228      0.0001
     86  N         76.1080    6.8650   21.3140 N.3   263  TRP263     -0.1241
     87  CA        77.2610    7.5390   21.8900 C.3   263  TRP263      0.1605
     88  C         77.9730    6.7110   22.9530 C.2   263  TRP263      0.2264
     89  O         79.1930    6.7870   23.0790 O.2   263  TRP263     -0.2867
     90  CB        76.8650    8.8990   22.4690 C.3   263  TRP263      0.0550
     91  CG        76.5450    9.9120   21.4120 C.ar  263  TRP263      0.0003
     92  CD1       75.3040   10.3440   21.0340 C.ar  263  TRP263      0.0946
     93  CD2       77.4850   10.6230   20.5940 C.ar  263  TRP263      0.0152
     94  NE1       75.4140   11.2830   20.0330 N.ar  263  TRP263     -0.2442
     95  CE2       76.7410   11.4740   19.7460 C.ar  263  TRP263      0.0810
     96  CE3       78.8840   10.6240   20.4980 C.ar  263  TRP263      0.0012
     97  CZ2       77.3500   12.3240   18.8090 C.ar  263  TRP263      0.0191
     98  CZ3       79.4910   11.4710   19.5660 C.ar  263  TRP263      0.0001
     99  CH2       78.7200   12.3090   18.7350 C.ar  263  TRP263      0.0015
    100  N         80.0550    4.3720   20.8930 N.3   266  TRP266     -0.1241
    101  CA        81.0370    5.0950   20.0970 C.3   266  TRP266      0.1605
    102  C         82.1240    5.6050   21.0340 C.2   266  TRP266      0.2264
    103  O         83.2980    5.6500   20.6660 O.2   266  TRP266     -0.2867
    104  CB        80.3930    6.2600   19.3430 C.3   266  TRP266      0.0550
    105  CG        79.4670    5.8140   18.2500 C.ar  266  TRP266      0.0003
    106  CD1       79.6130    4.7170   17.4380 C.ar  266  TRP266      0.0946
    107  CD2       78.2710    6.4690   17.8270 C.ar  266  TRP266      0.0152
    108  NE1       78.5760    4.6560   16.5340 N.ar  266  TRP266     -0.2442
    109  CE2       77.7390    5.7200   16.7520 C.ar  266  TRP266      0.0810
    110  CE3       77.5930    7.6210   18.2530 C.ar  266  TRP266      0.0012
    111  CZ2       76.5600    6.0860   16.0960 C.ar  266  TRP266      0.0191
    112  CZ3       76.4220    7.9840   17.6030 C.ar  266  TRP266      0.0001
    113  CH2       75.9170    7.2160   16.5340 C.ar  266  TRP266      0.0015
@<TRIPOS>BOND
     1    49    48    2
     2    48    47    1
     3    57    58    1
     4    50    47    1
     5    50    51    1
     6    47    46    1
     7    58    59    1
     8    58    61    1
     9    84    83    1
    10    59    60    2
    11    51    53   ar
    12    51    52   ar
    13    78    79    1
    14    79    82    1
    15    79    80    1
    16    53    55   ar
    17    82    83    1
    18    52    54   ar
    19    81    80    2
    20    83    85    1
    21    41    40    2
    22    55    56   ar
    23    11    10    1
    24    54    56   ar
    25    43    44    1
    26    43    42    1
    27    44    45    1
    28    40    39    1
    29    39    42    1
    30    39    38    1
    31    35    34    2
    32    12    10    1
    33    10     9    1
    34    38    34   am
    35    34    33    1
    36     9     6    1
    37     8     7    2
    38     6     7    1
    39     6     5    1
    40    33    32    1
    41    33    36    1
    42    77    75    1
    43     7    13   am
    44    37    36    1
    45     5     3   am
    46    23    21    1
    47    75    76    1
    48    75    74    1
    49    22    21    1
    50    73    72    2
    51    32    26   am
    52    27    26    2
    53    21    20    2
    54     4     3    2
    55     3     2    1
    56    26    25    1
    57    13    14    1
    58    72    71    1
    59    24    25    1
    60    14    15    1
    61    14    17    1
    62    74    71    1
    63    18    17    1
    64    18    19    1
    65     2     1    1
    66    25    28    1
    67    20    19    1
    68    71    70    1
    69    15    16    2
    70    28    29    1
    71    31    29    1
    72    70    64   am
    73    30    29    1
    74    65    64    2
    75   111   113   ar
    76   111   109   ar
    77    64    63    1
    78   113   112   ar
    79   108   109   ar
    80   108   106   ar
    81   109   107   ar
    82   106   105   ar
    83   112   110   ar
    84    63    62    1
    85    63    66    1
    86   107   105   ar
    87   107   110   ar
    88   105   104    1
    89    66    67    1
    90    99    97   ar
    91    99    98   ar
    92    97    95   ar
    93   104   101    1
    94    98    96   ar
    95    95    94   ar
    96    95    93   ar
    97    67    68   ar
    98    67    69   ar
    99    94    92   ar
   100   101   100    1
   101   101   102    1
   102    96    93   ar
   103    93    91   ar
   104   103   102    2
   105    92    91   ar
   106    86    87    1
   107    91    90    1
   108    87    90    1
   109    87    88    1
   110    88    89    2
