@<TRIPOS>MOLECULE
tmp/1dr4A01.pdb
 141 136 0 0 0
SMALL
GASTEIGER

@<TRIPOS>ATOM
      1  N         12.5110    1.2680    8.9840 N.3     7  ILE7       -0.1231
      2  CA        12.9870    1.7350    7.6540 C.3     7  ILE7        0.1692
      3  C         14.4920    2.0250    7.7950 C.2     7  ILE7        0.2592
      4  O         14.8790    2.5730    8.8420 O.2     7  ILE7       -0.2718
      5  CB        12.1950    3.0410    7.2590 C.3     7  ILE7        0.0266
      6  CG1       12.6820    3.3780    5.8010 C.3     7  ILE7        0.0019
      7  CG2       12.5000    4.1700    8.2810 C.3     7  ILE7        0.0020
      8  CD1       11.6030    4.1610    4.9820 C.3     7  ILE7        0.0001
      9  N         15.2480    1.5730    6.7750 N.am    8  VAL8       -0.1966
     10  CA        16.7060    1.7990    6.8540 C.3     8  VAL8        0.1727
     11  C         17.2750    1.7910    5.4180 C.2     8  VAL8        0.2616
     12  O         16.6460    1.1960    4.5250 O.2     8  VAL8       -0.2715
     13  CB        17.2930    0.5910    7.6410 C.3     8  VAL8        0.0290
     14  CG1       17.1470   -0.7060    6.8110 C.3     8  VAL8        0.0023
     15  CG2       18.7440    0.7880    8.0000 C.3     8  VAL8        0.0023
     16  N         18.4260    2.4490    5.2780 N.am    9  ALA9       -0.1977
     17  CA        19.1330    2.3350    3.9660 C.3     9  ALA9        0.1597
     18  C         20.4680    1.6260    4.3080 C.2     9  ALA9        0.2287
     19  O         21.0950    2.0900    5.2500 O.2     9  ALA9       -0.2864
     20  CB        19.3770    3.6750    3.3510 C.3     9  ALA9        0.0319
     21  N         25.7530    9.3420    7.3950 N.3    22  LEU22      -0.1245
     22  CA        25.5430    8.3030    6.3750 C.3    22  LEU22       0.1561
     23  C         26.8510    8.0860    5.5940 C.2    22  LEU22       0.2260
     24  O         27.6090    9.0380    5.3650 O.2    22  LEU22      -0.2867
     25  CB        24.3960    8.7130    5.4700 C.3    22  LEU22       0.0270
     26  CG        23.0030    8.8780    6.0470 C.3    22  LEU22       0.0019
     27  CD1       22.0360    9.0310    4.8540 C.3    22  LEU22       0.0001
     28  CD2       22.5970    7.6390    6.8340 C.3    22  LEU22       0.0001
     29  N         27.2030    7.3930    2.4070 N.3    24  TRP24      -0.1241
     30  CA        27.2460    7.9150    1.0090 C.3    24  TRP24       0.1605
     31  C         26.8670    9.3990    1.0470 C.2    24  TRP24       0.2264
     32  O         26.1190    9.7710    1.9160 O.2    24  TRP24      -0.2867
     33  CB        26.1640    7.1710    0.1710 C.3    24  TRP24       0.0550
     34  CG        24.9360    6.8530    0.9680 C.ar   24  TRP24       0.0003
     35  CD1       23.7890    7.6050    1.0500 C.ar   24  TRP24       0.0946
     36  CD2       24.7000    5.6970    1.7840 C.ar   24  TRP24       0.0152
     37  NE1       22.8590    6.9940    1.8400 N.ar   24  TRP24      -0.2442
     38  CE2       23.3830    5.7920    2.2830 C.ar   24  TRP24       0.0810
     39  CE3       25.4730    4.5730    2.0990 C.ar   24  TRP24       0.0012
     40  CZ2       22.8470    4.8600    3.1520 C.ar   24  TRP24       0.0191
     41  CZ3       24.9240    3.5830    2.9240 C.ar   24  TRP24       0.0001
     42  CH2       23.6540    3.7740    3.4750 C.ar   24  TRP24       0.0015
     43  N         16.2230    8.8100   -2.6400 N.3    30  GLU30      -0.1231
     44  CA        16.1520    7.8670   -1.4990 C.3    30  GLU30       0.1699
     45  C         15.6160    8.5900   -0.2570 C.2    30  GLU30       0.2592
     46  O         14.7260    8.0750    0.4320 O.2    30  GLU30      -0.2718
     47  CB        17.4820    7.2750   -1.1670 C.3    30  GLU30       0.0402
     48  CG        17.4680    5.7870   -0.7730 C.3    30  GLU30       0.1161
     49  CD        17.0410    5.6420    0.6950 C.2    30  GLU30       0.3649
     50  OE1       17.5040    6.5650    1.4100 O.co2  30  GLU30      -0.2457
     51  OE2       16.3140    4.7100    1.0570 O.co2  30  GLU30      -0.2457
     52  N         16.1090    9.7990   -0.0680 N.am   31  TYR31      -0.1976
     53  CA        15.6980   10.6200    1.0450 C.3    31  TYR31       0.1639
     54  C         14.2230   10.9610    0.9840 C.2    31  TYR31       0.2290
     55  O         13.5480   10.8340    2.0190 O.2    31  TYR31      -0.2864
     56  CB        16.6350   11.6990    1.4670 C.3    31  TYR31       0.0560
     57  CG        16.3190   12.3220    2.8220 C.ar   31  TYR31      -0.0198
     58  CD1       16.6360   11.6930    4.0270 C.ar   31  TYR31      -0.0009
     59  CD2       15.7010   13.5760    2.8730 C.ar   31  TYR31      -0.0009
     60  CE1       16.3510   12.3000    5.2610 C.ar   31  TYR31       0.0417
     61  CE2       15.3900   14.1880    4.0860 C.ar   31  TYR31       0.0417
     62  CZ        15.7040   13.5310    5.2750 C.ar   31  TYR31       0.1957
     63  OH        15.4050   14.0980    6.4960 O.3    31  TYR31      -0.2866
     64  N         11.9630    9.2040   -0.3720 N.3    33  TYR33      -0.1227
     65  CA        11.2720    7.9300   -0.1350 C.3    33  TYR33       0.1736
     66  C         11.0700    7.7360    1.3870 C.2    33  TYR33       0.2595
     67  O          9.9270    7.5160    1.8260 O.2    33  TYR33      -0.2718
     68  CB        11.9590    6.7660   -0.8330 C.3    33  TYR33       0.0548
     69  CG        11.4190    5.3730   -0.4780 C.ar   33  TYR33      -0.0200
     70  CD1       10.3180    4.8570   -1.1310 C.ar   33  TYR33      -0.0009
     71  CD2       12.0130    4.5940    0.5140 C.ar   33  TYR33      -0.0009
     72  CE1        9.7960    3.5990   -0.8560 C.ar   33  TYR33       0.0417
     73  CE2       11.5330    3.3190    0.8030 C.ar   33  TYR33       0.0417
     74  CZ        10.4270    2.8200    0.1180 C.ar   33  TYR33       0.1957
     75  OH         9.9200    1.5710    0.3710 O.3    33  TYR33      -0.2866
     76  N         12.1240    7.9920    2.1470 N.am   34  PHE34      -0.1976
     77  CA        12.1600    7.8600    3.6130 C.3    34  PHE34       0.1639
     78  C         11.1670    8.8370    4.2650 C.2    34  PHE34       0.2290
     79  O         10.3770    8.4880    5.1580 O.2    34  PHE34      -0.2864
     80  CB        13.6040    7.9880    4.1690 C.3    34  PHE34       0.0560
     81  CG        13.6030    8.5280    5.6110 C.ar   34  PHE34      -0.0200
     82  CD1       13.5280    9.8690    5.8600 C.ar   34  PHE34      -0.0042
     83  CD2       13.5870    7.6000    6.6610 C.ar   34  PHE34      -0.0042
     84  CE1       13.4990   10.3270    7.1990 C.ar   34  PHE34      -0.0003
     85  CE2       13.4670    8.0310    7.9620 C.ar   34  PHE34      -0.0003
     86  CZ        13.4550    9.4220    8.2450 C.ar   34  PHE34      -0.0000
     87  N         21.4410    8.9930   16.4950 N.3    56  THR56      -0.1218
     88  CA        20.6360    9.3140   15.2900 C.3    56  THR56       0.1862
     89  C         19.9650   10.6780   15.3790 C.2    56  THR56       0.2287
     90  O         19.9480   11.4240   14.3430 O.2    56  THR56      -0.2866
     91  CB        19.6850    8.1360   14.9590 C.3    56  THR56       0.1770
     92  OG1       20.5810    7.0230   14.7320 O.3    56  THR56      -0.2211
     93  CG2       18.7790    8.3340   13.7420 C.3    56  THR56       0.0375
     94  N         22.3240   13.3180   14.8300 N.3    59  SER59      -0.1202
     95  CA        22.8500   13.2870   13.4430 C.3    59  SER59       0.2020
     96  C         22.0860   14.2220   12.5410 C.2    59  SER59       0.2618
     97  O         22.5290   14.5800   11.3970 O.2    59  SER59      -0.2717
     98  CB        22.9780   11.8820   12.9060 C.3    59  SER59       0.2103
     99  OG        21.8140   11.3550   12.3860 O.3    59  SER59      -0.2182
    100  N         20.9140   14.6220   12.9900 N.am   60  ILE60      -0.1979
    101  CA        20.0770   15.5070   12.1080 C.3    60  ILE60       0.1595
    102  C         20.5090   16.9410   12.3530 C.2    60  ILE60       0.2287
    103  O         20.6480   17.3150   13.5360 O.2    60  ILE60      -0.2864
    104  CB        18.5610   15.2930   12.4200 C.3    60  ILE60       0.0276
    105  CG1       18.2110   13.7880   12.3080 C.3    60  ILE60       0.0022
    106  CG2       17.6470   16.1300   11.4720 C.3    60  ILE60       0.0022
    107  CD1       16.8780   13.4190   13.0020 C.3    60  ILE60       0.0001
    108  N         11.9460   15.9320   13.0990 N.3    67  LEU67      -0.1245
    109  CA        11.3900   15.5210   11.8030 C.3    67  LEU67       0.1561
    110  C          9.9630   16.0560   11.7380 C.2    67  LEU67       0.2260
    111  O          9.0410   15.5650   12.4340 O.2    67  LEU67      -0.2867
    112  CB        11.5510   14.0280   11.7300 C.3    67  LEU67       0.0270
    113  CG        13.0180   13.5770   11.6540 C.3    67  LEU67       0.0019
    114  CD1       13.0310   12.0800   11.3230 C.3    67  LEU67       0.0001
    115  CD2       13.6490   14.3950   10.5470 C.3    67  LEU67       0.0001
    116  N         13.4880    4.1840   13.2180 N.3   115  VAL115     -0.1245
    117  CA        14.4580    4.7900   12.3550 C.3   115  VAL115      0.1561
    118  C         15.8910    4.7260   12.8580 C.2   115  VAL115      0.2260
    119  O         16.7480    5.4910   12.3270 O.2   115  VAL115     -0.2867
    120  CB        14.0760    6.1910   11.8550 C.3   115  VAL115      0.0252
    121  CG1       12.6700    6.1990   11.3020 C.3   115  VAL115      0.0019
    122  CG2       14.3610    7.1840   12.9570 C.3   115  VAL115      0.0019
    123  N         16.8810   -0.8330   16.2400 N.3   121  TYR121     -0.1241
    124  CA        16.3940   -1.7730   15.2310 C.3   121  TYR121      0.1605
    125  C         16.4040   -3.1830   15.8700 C.2   121  TYR121      0.2264
    126  O         15.4360   -3.8860   15.6750 O.2   121  TYR121     -0.2867
    127  CB        17.3450   -1.8500   13.9950 C.3   121  TYR121      0.0534
    128  CG        17.2460   -0.6770   13.0670 C.ar  121  TYR121     -0.0201
    129  CD1       16.0480   -0.2640   12.4500 C.ar  121  TYR121     -0.0009
    130  CD2       18.4270   -0.0040   12.7130 C.ar  121  TYR121     -0.0009
    131  CE1       16.0410    0.8130   11.5650 C.ar  121  TYR121      0.0417
    132  CE2       18.4180    1.0840   11.8390 C.ar  121  TYR121      0.0417
    133  CZ        17.2350    1.5000   11.2910 C.ar  121  TYR121      0.1957
    134  OH        17.2780    2.5660   10.4490 O.3   121  TYR121     -0.2866
    135  N         16.2630   -0.3120    2.0510 N.3   136  THR136     -0.1218
    136  CA        16.7820    0.1600    0.7510 C.3   136  THR136      0.1862
    137  C         18.1960   -0.4450    0.6400 C.2   136  THR136      0.2287
    138  O         19.0610   -0.0550    1.4860 O.2   136  THR136     -0.2866
    139  CB        16.9400    1.7260    0.6680 C.3   136  THR136      0.1770
    140  OG1       15.6130    2.3530    0.8090 O.3   136  THR136     -0.2211
    141  CG2       17.7230    2.0990   -0.6110 C.3   136  THR136      0.0375
@<TRIPOS>BOND
     1    43    44    1
     2    44    47    1
     3    44    45    1
     4    47    48    1
     5    70    72   ar
     6    70    69   ar
     7    72    74   ar
     8    68    69    1
     9    68    65    1
    10    48    49    1
    11   141   139    1
    12    69    71   ar
    13    64    65    1
    14    45    52   am
    15    45    46    2
    16    65    66    1
    17    52    53    1
    18    74    75    1
    19    74    73   ar
    20    33    34    1
    21    33    30    1
    22    71    73   ar
    23   137   136    1
    24   137   138    2
    25   139   136    1
    26   139   140    1
    27    49    51   ar
    28    49    50   ar
    29   136   135    1
    30    34    35   ar
    31    34    36   ar
    32    54    53    1
    33    54    55    2
    34    30    31    1
    35    30    29    1
    36    53    56    1
    37    31    32    2
    38    35    37   ar
    39    66    67    2
    40    66    76   am
    41    56    57    1
    42    36    39   ar
    43    36    38   ar
    44    37    38   ar
    45    39    41   ar
    46    76    77    1
    47    38    40   ar
    48    57    59   ar
    49    57    58   ar
    50    59    61   ar
    51    41    42   ar
    52    40    42   ar
    53    20    17    1
    54    77    80    1
    55    77    78    1
    56    17    18    1
    57    17    16    1
    58    58    60   ar
    59    61    62   ar
    60    80    81    1
    61    78    79    2
    62    18    19    2
    63    12    11    2
    64    27    26    1
    65     8     6    1
    66    60    62   ar
    67    62    63    1
    68    16    11   am
    69    24    23    2
    70    11    10    1
    71    25    26    1
    72    25    22    1
    73    23    22    1
    74    81    82   ar
    75    81    83   ar
    76     6     5    1
    77    82    84   ar
    78    26    28    1
    79    22    21    1
    80    83    85   ar
    81     9    10    1
    82     9     3   am
    83    14    13    1
    84    10    13    1
    85    84    86   ar
    86     5     2    1
    87     5     7    1
    88    13    15    1
    89     2     3    1
    90     2     1    1
    91     3     4    2
    92    85    86   ar
    93   134   133    1
    94   115   113    1
    95   133   131   ar
    96   133   132   ar
    97   121   120    1
    98   114   113    1
    99    97    96    2
   100   106   104    1
   101   131   129   ar
   102   113   112    1
   103   112   109    1
   104   110   109    1
   105   110   111    2
   106   109   108    1
   107   132   130   ar
   108   120   117    1
   109   120   122    1
   110   101   102    1
   111   101   104    1
   112   101   100    1
   113   105   104    1
   114   105   107    1
   115   119   118    2
   116   102   103    2
   117   117   118    1
   118   117   116    1
   119    99    98    1
   120   129   128   ar
   121    96   100   am
   122    96    95    1
   123   130   128   ar
   124    98    95    1
   125   128   127    1
   126    95    94    1
   127    93    91    1
   128   127   124    1
   129    90    89    2
   130    92    91    1
   131    91    88    1
   132   124   125    1
   133   124   123    1
   134    88    89    1
   135    88    87    1
   136   126   125    2
