@<TRIPOS>MOLECULE
tmp/1drfA00.pdb
 218 211 0 0 0
SMALL
GASTEIGER

@<TRIPOS>ATOM
      1  N         20.9620   11.8160   -2.7840 N.3     7  ILE7       -0.1231
      2  CA        22.0810   11.8820   -3.7770 C.3     7  ILE7        0.1692
      3  C         23.1880   10.9850   -3.2180 C.2     7  ILE7        0.2592
      4  O         23.3410   10.8980   -1.9890 O.2     7  ILE7       -0.2718
      5  CB        22.5180   13.3320   -4.0530 C.3     7  ILE7        0.0266
      6  CG1       23.6440   13.3610   -5.1290 C.3     7  ILE7        0.0019
      7  CG2       22.9700   14.0880   -2.7550 C.3     7  ILE7        0.0020
      8  CD1       23.5530   14.4840   -6.1620 C.3     7  ILE7        0.0001
      9  N         23.8670   10.3190   -4.1250 N.am    8  VAL8       -0.1966
     10  CA        24.9640    9.4080   -3.7410 C.3     8  VAL8        0.1727
     11  C         25.9040    9.2080   -4.9510 C.2     8  VAL8        0.2616
     12  O         25.5250    9.4130   -6.0980 O.2     8  VAL8       -0.2715
     13  CB        24.3690    8.0840   -3.2410 C.3     8  VAL8        0.0290
     14  CG1       23.7620    7.2670   -4.3850 C.3     8  VAL8        0.0023
     15  CG2       25.3870    7.2360   -2.4800 C.3     8  VAL8        0.0023
     16  N         27.1040    8.8570   -4.6030 N.am    9  ALA9       -0.1977
     17  CA        28.1690    8.4970   -5.5770 C.3     9  ALA9        0.1597
     18  C         28.6050    7.1010   -5.0660 C.2     9  ALA9        0.2287
     19  O         28.9110    7.0160   -3.8530 O.2     9  ALA9       -0.2864
     20  CB        29.2520    9.4870   -5.6520 C.3     9  ALA9        0.0319
     21  N         30.5830    3.6110   -0.6500 N.3    16  ILE16      -0.1245
     22  CA        30.3830    5.0660   -0.5420 C.3    16  ILE16       0.1561
     23  C         31.4250    5.7480    0.2920 C.2    16  ILE16       0.2260
     24  O         31.5910    7.0050    0.1600 O.2    16  ILE16      -0.2867
     25  CB        28.9040    5.3820   -0.1620 C.3    16  ILE16       0.0252
     26  CG1       28.6050    4.9440    1.2960 C.3    16  ILE16       0.0019
     27  CG2       27.8770    4.7500   -1.1430 C.3    16  ILE16       0.0019
     28  CD1       27.4130    5.7130    1.9400 C.3    16  ILE16       0.0001
     29  N         36.1010    9.3770    0.8190 N.3    22  LEU22      -0.1245
     30  CA        35.7820    8.8280   -0.4940 C.3    22  LEU22       0.1561
     31  C         36.7520    7.7090   -0.8620 C.2    22  LEU22       0.2260
     32  O         37.9740    7.8840   -0.7420 O.2    22  LEU22      -0.2867
     33  CB        35.8440   10.0270   -1.4810 C.3    22  LEU22       0.0270
     34  CG        34.6990   10.9790   -1.5430 C.3    22  LEU22       0.0019
     35  CD1       33.4550   10.3630   -2.1870 C.3    22  LEU22       0.0001
     36  CD2       34.3260   11.5020   -0.1580 C.3    22  LEU22       0.0001
     37  N         37.5170    6.7100   -3.7540 N.3    24  TRP24      -0.1241
     38  CA        38.2440    7.0830   -4.9810 C.3    24  TRP24       0.1605
     39  C         38.8740    8.4640   -4.8540 C.2    24  TRP24       0.2264
     40  O         38.4910    9.2630   -3.9970 O.2    24  TRP24      -0.2867
     41  CB        37.2110    7.0740   -6.1640 C.3    24  TRP24       0.0550
     42  CG        35.9590    7.8030   -5.7700 C.ar   24  TRP24       0.0003
     43  CD1       35.7490    9.1400   -5.7680 C.ar   24  TRP24       0.0946
     44  CD2       34.7730    7.2010   -5.2240 C.ar   24  TRP24       0.0152
     45  NE1       34.4810    9.4270   -5.2980 N.ar   24  TRP24      -0.2442
     46  CE2       33.8700    8.2490   -4.9560 C.ar   24  TRP24       0.0810
     47  CE3       34.3930    5.8900   -4.9690 C.ar   24  TRP24       0.0012
     48  CZ2       32.6040    8.0220   -4.4310 C.ar   24  TRP24       0.0191
     49  CZ3       33.1370    5.6570   -4.4470 C.ar   24  TRP24       0.0001
     50  CH2       32.2500    6.7120   -4.1910 C.ar   24  TRP24       0.0015
     51  N         36.6100   16.3310   -9.3640 N.3    28  ARG28      -0.1245
     52  CA        36.1740   17.7040   -9.3630 C.3    28  ARG28       0.1563
     53  C         34.8070   17.9580   -9.9360 C.2    28  ARG28       0.2260
     54  O         33.9330   18.5360   -9.2110 O.2    28  ARG28      -0.2867
     55  CB        37.2080   18.6570   -9.9750 C.3    28  ARG28       0.0307
     56  CG        38.6440   18.3790   -9.7380 C.3    28  ARG28       0.0489
     57  CD        38.9700   17.9620   -8.3390 C.3    28  ARG28       0.2205
     58  NE        40.4110   18.2470   -8.0630 N.pl3  28  ARG28      -0.0865
     59  CZ        41.3480   17.4550   -8.6010 C.cat  28  ARG28       0.5346
     60  NH1       41.0090   16.4190   -9.3620 N.pl3  28  ARG28       0.1354
     61  NH2       42.6340   17.7270   -8.3850 N.pl3  28  ARG28       0.1354
     62  N         32.5470   16.0240  -10.5680 N.3    30  GLU30      -0.1231
     63  CA        31.5350   15.2070   -9.8560 C.3    30  GLU30       0.1699
     64  C         31.1230   15.9570   -8.5880 C.2    30  GLU30       0.2592
     65  O         29.9250   16.0790   -8.2890 O.2    30  GLU30      -0.2718
     66  CB        31.9130   13.8110   -9.5980 C.3    30  GLU30       0.0402
     67  CG        30.8350   12.7150   -9.4940 C.3    30  GLU30       0.1161
     68  CD        29.9100   12.8300   -8.3230 C.2    30  GLU30       0.3649
     69  OE1       28.7100   12.7060   -8.3540 O.co2  30  GLU30      -0.2457
     70  OE2       30.5390   13.0630   -7.2520 O.co2  30  GLU30      -0.2457
     71  N         32.1350   16.5430   -7.9320 N.am   31  PHE31      -0.1962
     72  CA        31.9110   17.3530   -6.7390 C.3    31  PHE31       0.1771
     73  C         31.0860   18.6010   -7.1000 C.2    31  PHE31       0.2619
     74  O         30.3200   19.1270   -6.2760 O.2    31  PHE31      -0.2715
     75  CB        33.1940   17.7240   -5.9840 C.3    31  PHE31       0.0574
     76  CG        33.4380   16.8570   -4.7760 C.ar   31  PHE31      -0.0200
     77  CD1       32.4220   16.6720   -3.8360 C.ar   31  PHE31      -0.0042
     78  CD2       34.6660   16.2170   -4.6050 C.ar   31  PHE31      -0.0042
     79  CE1       32.6120   15.8530   -2.7370 C.ar   31  PHE31      -0.0003
     80  CE2       34.8780   15.3960   -3.4910 C.ar   31  PHE31      -0.0003
     81  CZ        33.8460   15.2230   -2.5590 C.ar   31  PHE31      -0.0000
     82  N         31.2940   19.0370   -8.3240 N.am   32  ARG32      -0.1963
     83  CA        30.6230   20.2140   -8.8830 C.3    32  ARG32       0.1729
     84  C         29.1200   19.8980   -9.0500 C.2    32  ARG32       0.2616
     85  O         28.2710   20.7410   -8.7920 O.2    32  ARG32      -0.2715
     86  CB        31.1840   20.6180  -10.2250 C.3    32  ARG32       0.0348
     87  CG        32.5430   21.2160  -10.3200 C.3    32  ARG32       0.0492
     88  CD        32.6760   22.1490  -11.4870 C.3    32  ARG32       0.2205
     89  NE        32.2600   21.5510  -12.7360 N.pl3  32  ARG32      -0.0865
     90  CZ        31.0310   21.6600  -13.2580 C.cat  32  ARG32       0.5346
     91  NH1       30.0650   22.3480  -12.6620 N.pl3  32  ARG32       0.1354
     92  NH2       30.7800   21.0490  -14.4260 N.pl3  32  ARG32       0.1354
     93  N         28.8960   18.6810   -9.5110 N.am   33  TYR33      -0.1960
     94  CA        27.5420   18.1670   -9.7450 C.3    33  TYR33       0.1771
     95  C         26.8180   18.0280   -8.3970 C.2    33  TYR33       0.2620
     96  O         25.6650   18.4530   -8.2720 O.2    33  TYR33      -0.2715
     97  CB        27.5500   16.8590  -10.5130 C.3    33  TYR33       0.0574
     98  CG        26.2160   16.1510  -10.5930 C.ar   33  TYR33      -0.0198
     99  CD1       25.8090   15.2430   -9.6040 C.ar   33  TYR33      -0.0009
    100  CD2       25.3850   16.3420  -11.6880 C.ar   33  TYR33      -0.0009
    101  CE1       24.5940   14.5770   -9.7010 C.ar   33  TYR33       0.0417
    102  CE2       24.1700   15.6680  -11.8040 C.ar   33  TYR33       0.0417
    103  CZ        23.7740   14.8030  -10.8020 C.ar   33  TYR33       0.1957
    104  OH        22.5590   14.1770  -10.9440 O.3    33  TYR33      -0.2866
    105  N         27.5640   17.4510   -7.4530 N.am   34  PHE34      -0.1960
    106  CA        26.9870   17.2900   -6.0820 C.3    34  PHE34       0.1771
    107  C         26.5230   18.6640   -5.6070 C.2    34  PHE34       0.2619
    108  O         25.3820   18.8430   -5.1610 O.2    34  PHE34      -0.2715
    109  CB        27.9280   16.5910   -5.1160 C.3    34  PHE34       0.0574
    110  CG        27.5380   16.7590   -3.6680 C.ar   34  PHE34      -0.0200
    111  CD1       26.6910   15.8350   -3.0650 C.ar   34  PHE34      -0.0042
    112  CD2       27.9450   17.8880   -2.9650 C.ar   34  PHE34      -0.0042
    113  CE1       26.2870   15.9980   -1.7450 C.ar   34  PHE34      -0.0003
    114  CE2       27.5400   18.0790   -1.6370 C.ar   34  PHE34      -0.0003
    115  CZ        26.7050   17.1150   -1.0330 C.ar   34  PHE34      -0.0000
    116  N         27.4270   19.6390   -5.7530 N.am   35  GLN35      -0.1977
    117  CA        27.1630   21.0000   -5.3230 C.3    35  GLN35       0.1601
    118  C         25.9860   21.6550   -5.9750 C.2    35  GLN35       0.2287
    119  O         25.0790   22.1500   -5.2370 O.2    35  GLN35      -0.2864
    120  CB        28.4110   21.9210   -5.3380 C.3    35  GLN35       0.0394
    121  CG        28.1080   23.2200   -4.6710 C.3    35  GLN35       0.0908
    122  CD        29.0610   24.3120   -4.6040 C.2    35  GLN35       0.2608
    123  OE1       28.6450   25.5230   -4.6020 O.2    35  GLN35      -0.2717
    124  NE2       30.3560   24.0850   -4.4520 N.am   35  GLN35      -0.0878
    125  N         28.7620   11.5410    8.4510 N.3    56  THR56      -0.1218
    126  CA        28.8050   12.2430    7.1360 C.3    56  THR56       0.1862
    127  C         29.2860   13.6650    7.3440 C.2    56  THR56       0.2287
    128  O         30.2110   14.1240    6.6410 O.2    56  THR56      -0.2866
    129  CB        27.5290   12.0930    6.2850 C.3    56  THR56       0.1770
    130  OG1       27.3850   10.6350    6.0070 O.3    56  THR56      -0.2211
    131  CG2       27.5550   12.8330    4.9290 C.3    56  THR56       0.0375
    132  N         32.7450   13.9780    7.8220 N.3    59  SER59      -0.1202
    133  CA        33.4300   13.4510    6.6230 C.3    59  SER59       0.2020
    134  C         33.7640   14.5480    5.6490 C.2    59  SER59       0.2619
    135  O         34.6020   14.3340    4.7250 O.2    59  SER59      -0.2717
    136  CB        32.6700   12.3030    5.9940 C.3    59  SER59       0.2103
    137  OG        31.8260   12.7080    4.9360 O.3    59  SER59      -0.2182
    138  N         33.1600   15.7040    5.8210 N.am   60  ILE60      -0.1966
    139  CA        33.3930   16.8690    4.9660 C.3    60  ILE60       0.1712
    140  C         34.5140   17.7360    5.5420 C.2    60  ILE60       0.2458
    141  O         34.5450   17.9990    6.7440 O.2    60  ILE60      -0.2730
    142  CB        32.0550   17.6870    4.7910 C.3    60  ILE60       0.0289
    143  CG1       30.9340   16.7780    4.2870 C.3    60  ILE60       0.0022
    144  CG2       32.2520   18.9580    3.9410 C.3    60  ILE60       0.0023
    145  CD1       29.5000   17.1790    4.7210 C.3    60  ILE60       0.0001
    146  N         35.3980   18.1740    4.6470 N.am   61  PRO61      -0.2727
    147  CA        36.5110   19.0580    5.0300 C.3    61  PRO61       0.1402
    148  C         35.9480   20.2390    5.8140 C.2    61  PRO61       0.2269
    149  O         34.8780   20.7690    5.4470 O.2    61  PRO61      -0.2865
    150  CB        37.1670   19.4440    3.7400 C.3    61  PRO61       0.0296
    151  CG        36.6440   18.5340    2.6900 C.3    61  PRO61       0.0237
    152  CD        35.4020   17.8810    3.2180 C.3    61  PRO61       0.0939
    153  N         34.8690   23.7270    4.1480 N.3    64  ASN64      -0.1240
    154  CA        33.5380   24.0030    3.5240 C.3    64  ASN64       0.1653
    155  C         32.5040   23.1220    4.1750 C.2    64  ASN64       0.2266
    156  O         31.5170   22.7040    3.5520 O.2    64  ASN64      -0.2867
    157  CB        33.6510   23.9320    2.0050 C.3    64  ASN64       0.1155
    158  CG        34.2880   22.6060    1.5700 C.2    64  ASN64       0.2627
    159  OD1       35.3850   22.6000    1.0390 O.2    64  ASN64      -0.2716
    160  ND2       33.5750   21.5350    1.9270 N.am   64  ASN64      -0.0877
    161  N         27.9700   23.3650    4.4230 N.3    67  LEU67      -0.1231
    162  CA        27.8190   23.4580    2.9300 C.3    67  LEU67       0.1693
    163  C         27.1700   24.8200    2.6690 C.2    67  LEU67       0.2591
    164  O         26.0390   25.0640    3.1150 O.2    67  LEU67      -0.2718
    165  CB        27.0630   22.2450    2.4740 C.3    67  LEU67       0.0284
    166  CG        27.6140   20.8670    2.7690 C.3    67  LEU67       0.0019
    167  CD1       26.7390   19.7910    2.0850 C.3    67  LEU67       0.0001
    168  CD2       29.0400   20.7570    2.2370 C.3    67  LEU67       0.0001
    169  N         27.9380   25.6830    2.0450 N.am   68  LYS68      -0.1980
    170  CA        27.5270   27.0480    1.7290 C.3    68  LYS68       0.1596
    171  C         26.2650   27.0510    0.8770 C.2    68  LYS68       0.2287
    172  O         26.1100   26.2690   -0.0740 O.2    68  LYS68      -0.2864
    173  CB        28.6390   27.8400    1.0700 C.3    68  LYS68       0.0298
    174  CG        28.7690   27.8350   -0.4030 C.3    68  LYS68       0.0038
    175  CD        29.9790   27.1470   -0.9720 C.3    68  LYS68       0.0206
    176  CE        31.1960   28.0010   -1.1140 C.3    68  LYS68       0.1093
    177  NZ        30.9040   29.2510   -1.8720 N.3    68  LYS68      -0.1314
    178  N         23.1640   26.2500    1.7650 N.3    70  ARG70      -0.1245
    179  CA        22.1610   25.2240    2.1080 C.3    70  ARG70       0.1563
    180  C         21.9780   25.1780    3.6190 C.2    70  ARG70       0.2260
    181  O         22.9230   25.5190    4.3670 O.2    70  ARG70      -0.2867
    182  CB        22.6180   23.8440    1.5820 C.3    70  ARG70       0.0307
    183  CG        22.8680   23.8060    0.0820 C.3    70  ARG70       0.0489
    184  CD        23.9450   22.8910   -0.3200 C.3    70  ARG70       0.2205
    185  NE        25.2620   23.4790   -0.3820 N.pl3  70  ARG70      -0.0865
    186  CZ        26.3400   22.9000   -0.9020 C.cat  70  ARG70       0.5346
    187  NH1       26.3090   21.6790   -1.4490 N.pl3  70  ARG70       0.1354
    188  NH2       27.5130   23.5460   -0.8780 N.pl3  70  ARG70       0.1354
    189  N         22.0630   13.2660    2.0080 N.3   115  VAL115     -0.1231
    190  CA        23.4170   13.1330    1.4790 C.3   115  VAL115      0.1696
    191  C         24.3680   12.2950    2.2580 C.2   115  VAL115      0.2631
    192  O         25.6130   12.4230    1.9750 O.2   115  VAL115     -0.2714
    193  CB        23.9990   14.6040    1.3500 C.3   115  VAL115      0.0266
    194  CG1       23.0340   15.5610    0.7530 C.3   115  VAL115      0.0020
    195  CG2       24.5130   15.0350    2.7200 C.3   115  VAL115      0.0020
    196  N         23.9300   11.5040    3.2340 N.am  116  GLY116     -0.1732
    197  CA        24.9130   10.7480    4.0080 C.2   116  GLY116      0.1340
    198  C         24.4810    9.9910    5.2020 C.2   116  GLY116      0.2521
    199  O         23.7770   10.4170    6.1190 O.2   116  GLY116     -0.2816
    200  N         20.3350    6.6400    4.2630 N.3   121  TYR121     -0.1241
    201  CA        19.9310    6.2380    2.8850 C.3   121  TYR121      0.1605
    202  C         18.8580    5.1520    2.9750 C.2   121  TYR121      0.2264
    203  O         17.7670    5.2810    2.4100 O.2   121  TYR121     -0.2867
    204  CB        21.1180    5.8020    2.0500 C.3   121  TYR121      0.0534
    205  CG        22.0350    6.8780    1.5390 C.ar  121  TYR121     -0.0201
    206  CD1       23.4290    6.7650    1.7000 C.ar  121  TYR121     -0.0009
    207  CD2       21.5570    7.9760    0.8430 C.ar  121  TYR121     -0.0009
    208  CE1       24.2990    7.7160    1.1900 C.ar  121  TYR121      0.0417
    209  CE2       22.4110    8.9540    0.3330 C.ar  121  TYR121      0.0417
    210  CZ        23.7840    8.8120    0.4960 C.ar  121  TYR121      0.1957
    211  OH        24.5940    9.7820   -0.0120 O.3   121  TYR121     -0.2866
    212  N         25.3910    8.6480   -8.7600 N.3   136  THR136     -0.1218
    213  CA        26.5880    8.7510   -9.6340 C.3   136  THR136      0.1862
    214  C         27.2470    7.3510   -9.5880 C.2   136  THR136      0.2287
    215  O         27.6190    6.8900   -8.5060 O.2   136  THR136     -0.2866
    216  CB        27.5900    9.8560   -9.2390 C.3   136  THR136      0.1770
    217  OG1       26.8900   11.1370   -9.2400 O.3   136  THR136     -0.2211
    218  CG2       28.8320    9.9320  -10.1570 C.3   136  THR136      0.0375
@<TRIPOS>BOND
     1    92    90    1
     2    90    89    2
     3    90    91    1
     4    89    88    1
     5   102   100   ar
     6   102   103   ar
     7   100    98   ar
     8    88    87    1
     9   104   103    1
    10   103   101   ar
    11    98    97    1
    12    98    99   ar
    13    62    63    1
    14    97    94    1
    15    87    86    1
    16    86    83    1
    17   218   216    1
    18    55    56    1
    19    55    52    1
    20    53    52    1
    21    53    54    2
    22    63    66    1
    23    63    64    1
    24    94    93    1
    25    94    95    1
    26    56    57    1
    27   101    99   ar
    28   213   214    1
    29   213   216    1
    30   213   212    1
    31    66    67    1
    32   214   215    2
    33    93    84   am
    34    67    68    1
    35    51    52    1
    36    60    59    1
    37   217   216    1
    38    84    83    1
    39    84    85    2
    40    83    82    1
    41    59    61    1
    42    59    58    2
    43    64    65    2
    44    64    71   am
    45    95    96    2
    46    95   105   am
    47    69    68   ar
    48    57    58    1
    49    82    73   am
    50    68    70   ar
    51    71    72    1
    52   105   106    1
    53    73    72    1
    54    73    74    2
    55    72    75    1
    56    41    42    1
    57    41    38    1
    58     8     6    1
    59    12    11    2
    60   106   107    1
    61   106   109    1
    62    75    76    1
    63   118   117    1
    64   118   119    2
    65    42    43   ar
    66    42    44   ar
    67    43    45   ar
    68   116   107   am
    69   116   117    1
    70    20    17    1
    71   107   108    2
    72    17    18    1
    73    17    16    1
    74   120   117    1
    75   120   121    1
    76    45    46   ar
    77    44    47   ar
    78    44    46   ar
    79     6     5    1
    80   109   110    1
    81    18    19    2
    82    38    39    1
    83    38    37    1
    84    47    49   ar
    85    46    48   ar
    86    11    16   am
    87    11    10    1
    88    39    40    2
    89    76    78   ar
    90    76    77   ar
    91   121   122    1
    92    78    80   ar
    93   122   123    2
    94   122   124   am
    95    49    50   ar
    96    48    50   ar
    97    14    13    1
    98     9    10    1
    99     9     3   am
   100     5     2    1
   101     5     7    1
   102    77    79   ar
   103     2     3    1
   104     2     1    1
   105    10    13    1
   106   110   111   ar
   107   110   112   ar
   108    80    81   ar
   109    13    15    1
   110     3     4    2
   111   111   113   ar
   112   112   114   ar
   113    79    81   ar
   114    35    34    1
   115   177   176    1
   116   113   115   ar
   117   114   115   ar
   118    34    33    1
   119    34    36    1
   120    33    30    1
   121   187   186    1
   122    27    25    1
   123   176   175    1
   124   175   174    1
   125   186   188    1
   126   186   185    2
   127    31    32    2
   128    31    30    1
   129    21    22    1
   130    22    25    1
   131    22    23    1
   132    30    29    1
   133   174   173    1
   134   185   184    1
   135   184   183    1
   136    25    26    1
   137   172   171    2
   138   211   210    1
   139   183   182    1
   140    24    23    2
   141   209   210   ar
   142   209   207   ar
   143   210   208   ar
   144   194   193    1
   145   207   205   ar
   146   171   170    1
   147   159   158    2
   148   173   170    1
   149   208   206   ar
   150    26    28    1
   151   193   190    1
   152   193   195    1
   153   190   189    1
   154   190   191    1
   155   205   206   ar
   156   205   204    1
   157   158   160   am
   158   158   157    1
   159   182   179    1
   160   170   169    1
   161   178   179    1
   162   192   191    2
   163   157   154    1
   164   169   163   am
   165   204   201    1
   166   167   166    1
   167   179   180    1
   168   168   166    1
   169   191   196    1
   170   203   202    2
   171   165   166    1
   172   165   162    1
   173   163   162    1
   174   163   164    2
   175   151   152    1
   176   151   150    1
   177   201   202    1
   178   201   200    1
   179   162   161    1
   180   152   146    1
   181   196   197    2
   182   154   153    1
   183   154   155    1
   184   156   155    2
   185   180   181    2
   186   150   147    1
   187   144   142    1
   188   197   198    1
   189   143   145    1
   190   143   142    1
   191   146   147    1
   192   146   140   am
   193   135   134    2
   194   142   139    1
   195   131   129    1
   196   137   136    1
   197   139   140    1
   198   139   138    1
   199   147   148    1
   200   198   199    2
   201   149   148    2
   202   140   141    2
   203   134   138   am
   204   134   133    1
   205   136   133    1
   206   130   129    1
   207   129   126    1
   208   133   132    1
   209   128   127    2
   210   126   127    1
   211   126   125    1
