@<TRIPOS>MOLECULE
tmp/1drtA00.pdb
 138 131 0 0 0
SMALL
GASTEIGER

@<TRIPOS>ATOM
      1  N          8.6450    8.5860   11.5080 N.3   113  LEU113     -0.1231
      2  CA         7.2620    8.8080   11.1260 C.3   113  LEU113      0.1693
      3  C          6.4000    9.3670   12.2510 C.2   113  LEU113      0.2591
      4  O          6.3230    8.7960   13.3340 O.2   113  LEU113     -0.2718
      5  CB         6.6510    7.4940   10.6210 C.3   113  LEU113      0.0284
      6  CG         5.2350    7.5590   10.0410 C.3   113  LEU113      0.0019
      7  CD1        5.2490    8.3130    8.7170 C.3   113  LEU113      0.0001
      8  CD2        4.7000    6.1510    9.8480 C.3   113  LEU113      0.0001
      9  N          5.7550   10.4930   11.9770 N.am  114  ARG114     -0.1980
     10  CA         4.8620   11.1380   12.9320 C.3   114  ARG114      0.1597
     11  C          5.4580   11.3050   14.3260 C.2   114  ARG114      0.2287
     12  O          4.8650   10.8870   15.3190 O.2   114  ARG114     -0.2864
     13  CB         3.5510   10.3480   13.0150 C.3   114  ARG114      0.0334
     14  CG         2.8880   10.1050   11.6610 C.3   114  ARG114      0.0492
     15  CD         2.2840   11.3750   11.1040 C.3   114  ARG114      0.2205
     16  NE         1.0540   11.7260   11.8070 N.pl3 114  ARG114     -0.0865
     17  CZ        -0.1700   11.4320   11.3740 C.cat 114  ARG114      0.5346
     18  NH1       -0.3390   10.7830   10.2270 N.pl3 114  ARG114      0.1354
     19  NH2       -1.2290   11.7800   12.0960 N.pl3 114  ARG114      0.1354
     20  N          1.3410   11.7840   -1.3020 N.3   131  LEU131     -0.1231
     21  CA         1.5090   10.4460   -0.7220 C.3   131  LEU131      0.1693
     22  C          1.1370   10.4140    0.7580 C.2   131  LEU131      0.2593
     23  O          1.4720    9.4710    1.4610 O.2   131  LEU131     -0.2718
     24  CB         2.9580    9.9740   -0.8770 C.3   131  LEU131      0.0284
     25  CG         3.4110    9.5180   -2.2670 C.3   131  LEU131      0.0019
     26  CD1        4.9120    9.2700   -2.2640 C.3   131  LEU131      0.0001
     27  CD2        2.6600    8.2570   -2.6630 C.3   131  LEU131      0.0001
     28  N          0.4300   11.4440    1.2170 N.am  132  SER132     -0.1938
     29  CA         0.0370   11.5660    2.6200 C.3   132  SER132      0.2055
     30  C         -1.3860   11.1230    2.9650 C.2   132  SER132      0.2643
     31  O         -2.2910   11.1580    2.1300 O.2   132  SER132     -0.2714
     32  CB         0.2280   13.0150    3.0700 C.3   132  SER132      0.2130
     33  OG        -0.2880   13.2220    4.3700 O.3   132  SER132     -0.2179
     34  N         -1.5700   10.7090    4.2150 N.am  133  SER133     -0.1949
     35  CA        -2.8760   10.2810    4.6950 C.3   133  SER133      0.1924
     36  C         -3.7340   11.5280    4.8470 C.2   133  SER133      0.2314
     37  O         -4.9460   11.4450    5.0450 O.2   133  SER133     -0.2863
     38  CB        -2.7460    9.5920    6.0540 C.3   133  SER133      0.2116
     39  OG        -1.9300    8.4420    5.9760 O.3   133  SER133     -0.2180
     40  N         -5.4900    8.5110   -2.8980 N.3   140  LEU140     -0.1231
     41  CA        -4.3090    8.0130   -2.2020 C.3   140  LEU140      0.1693
     42  C         -4.0150    6.6420   -2.8100 C.2   140  LEU140      0.2591
     43  O         -4.5720    5.6330   -2.3890 O.2   140  LEU140     -0.2718
     44  CB        -4.5760    7.8990   -0.6950 C.3   140  LEU140      0.0284
     45  CG        -3.4250    7.3730    0.1720 C.3   140  LEU140      0.0019
     46  CD1       -2.1830    8.1990   -0.0500 C.3   140  LEU140      0.0001
     47  CD2       -3.8290    7.4070    1.6280 C.3   140  LEU140      0.0001
     48  N         -3.1470    6.6430   -3.8200 N.am  141  GLU141     -0.1979
     49  CA        -2.7440    5.4560   -4.5750 C.3   141  GLU141      0.1602
     50  C         -2.3990    4.2010   -3.7700 C.2   141  GLU141      0.2287
     51  O         -1.8240    4.2800   -2.6800 O.2   141  GLU141     -0.2864
     52  CB        -1.5450    5.8110   -5.4640 C.3   141  GLU141      0.0415
     53  CG        -1.8070    6.8780   -6.5260 C.3   141  GLU141      0.1163
     54  CD        -2.5130    6.3370   -7.7600 C.2   141  GLU141      0.3649
     55  OE1       -1.9810    5.4100   -8.4100 O.co2 141  GLU141     -0.2457
     56  OE2       -3.6020    6.8450   -8.0860 O.co2 141  GLU141     -0.2457
     57  N         -0.9530    1.1260   -1.9160 N.3   143  HIS143     -0.1241
     58  CA         0.3390    0.9730   -1.2530 C.3   143  HIS143      0.1621
     59  C          0.3140   -0.0140   -0.0930 C.2   143  HIS143      0.2264
     60  O         -0.6170   -0.0240    0.7180 O.2   143  HIS143     -0.2867
     61  CB         0.8510    2.3240   -0.7320 C.3   143  HIS143      0.0745
     62  CG         0.0040    2.9210    0.3500 C.ar  143  HIS143      0.0817
     63  ND1       -1.1600    3.6130    0.0910 N.ar  143  HIS143     -0.2268
     64  CD2        0.1360    2.9020    1.6980 C.ar  143  HIS143      0.1154
     65  CE1       -1.7080    3.9960    1.2320 C.ar  143  HIS143      0.1986
     66  NE2       -0.9410    3.5760    2.2220 N.ar  143  HIS143     -0.2212
     67  N          1.6920   -0.5800    3.1300 N.3   145  GLU145     -0.1231
     68  CA         2.3380    0.2660    4.1270 C.3   145  GLU145      0.1699
     69  C          3.7850   -0.0840    4.4540 C.2   145  GLU145      0.2592
     70  O          4.0720   -1.1670    4.9510 O.2   145  GLU145     -0.2718
     71  CB         1.5240    0.2670    5.4180 C.3   145  GLU145      0.0402
     72  CG         1.6510    1.5580    6.2030 C.3   145  GLU145      0.1161
     73  CD         0.5700    2.5570    5.8440 C.2   145  GLU145      0.3649
     74  OE1       -0.1490    2.3160    4.8570 O.co2 145  GLU145     -0.2457
     75  OE2        0.4310    3.5790    6.5460 O.co2 145  GLU145     -0.2457
     76  N          4.6850    0.8540    4.1730 N.am  146  MET146     -0.1979
     77  CA         6.1160    0.7000    4.4380 C.3   146  MET146      0.1605
     78  C          6.7130   -0.6190    3.9430 C.2   146  MET146      0.2287
     79  O          7.4890   -1.2650    4.6500 O.2   146  MET146     -0.2864
     80  CB         6.3770    0.8700    5.9410 C.3   146  MET146      0.0413
     81  CG         5.9340    2.2310    6.4770 C.3   146  MET146      0.0598
     82  SD         6.2280    2.5060    8.2400 S.3   146  MET146     -0.1393
     83  CE         4.7450    1.7900    8.9570 C.3   146  MET146      0.0692
     84  N          8.8230    6.5970    1.5530 N.3   201  ASP201     -0.1239
     85  CA         7.9760    7.7440    1.8500 C.3   201  ASP201      0.1674
     86  C          8.8060    8.9050    2.3750 C.2   201  ASP201      0.2266
     87  O          9.8990    8.7100    2.9240 O.2   201  ASP201     -0.2867
     88  CB         6.9020    7.3780    2.8730 C.3   201  ASP201      0.1410
     89  CG         5.8600    6.4260    2.3080 C.2   201  ASP201      0.3668
     90  OD1        6.0540    5.2000    2.3810 O.co2 201  ASP201     -0.2456
     91  OD2        4.8430    6.9100    1.7780 O.co2 201  ASP201     -0.2456
     92  N          8.9600   10.8400    5.0170 N.3   203  ALA203     -0.1231
     93  CA         9.5440   10.7460    6.3550 C.3   203  ALA203      0.1694
     94  C         10.8380    9.9270    6.4620 C.2   203  ALA203      0.2592
     95  O         11.6750   10.2140    7.3160 O.2   203  ALA203     -0.2718
     96  CB         8.5100   10.2000    7.3150 C.3   203  ALA203      0.0304
     97  N         10.9910    8.9230    5.6020 N.am  204  PHE204     -0.1976
     98  CA        12.1880    8.0860    5.6210 C.3   204  PHE204      0.1639
     99  C         13.2780    8.5030    4.6130 C.2   204  PHE204      0.2290
    100  O         14.2230    7.7470    4.3690 O.2   204  PHE204     -0.2864
    101  CB        11.8060    6.6150    5.4160 C.3   204  PHE204      0.0560
    102  CG        10.7230    6.1210    6.3470 C.ar  204  PHE204     -0.0200
    103  CD1        9.4120    5.9170    5.8960 C.ar  204  PHE204     -0.0042
    104  CD2       11.0010    5.9060    7.6930 C.ar  204  PHE204     -0.0042
    105  CE1        8.4060    5.5140    6.7840 C.ar  204  PHE204     -0.0003
    106  CE2       10.0010    5.5040    8.5850 C.ar  204  PHE204     -0.0003
    107  CZ         8.7070    5.3100    8.1240 C.ar  204  PHE204     -0.0000
    108  N          3.7030   -0.9780   -4.1960 N.3   224  ASP224     -0.1239
    109  CA         3.4230    0.4320   -4.0020 C.3   224  ASP224      0.1674
    110  C          3.3330    1.1130   -5.3600 C.2   224  ASP224      0.2266
    111  O          4.3450    1.3210   -6.0320 O.2   224  ASP224     -0.2867
    112  CB         4.5090    1.0870   -3.1540 C.3   224  ASP224      0.1410
    113  CG         4.1870    2.5290   -2.8270 C.2   224  ASP224      0.3668
    114  OD1        4.3520    2.9230   -1.6500 O.co2 224  ASP224     -0.2456
    115  OD2        3.7680    3.2700   -3.7460 O.co2 224  ASP224     -0.2456
    116  N         -5.0970    5.3830   13.4640 N.3   288  ARG288     -0.1245
    117  CA        -4.2520    4.3260   12.9150 C.3   288  ARG288      0.1563
    118  C         -3.1300    3.8690   13.8480 C.2   288  ARG288      0.2260
    119  O         -2.5660    4.6600   14.6100 O.2   288  ARG288     -0.2867
    120  CB        -3.6370    4.7940   11.5900 C.3   288  ARG288      0.0307
    121  CG        -2.6910    3.7810   10.9260 C.3   288  ARG288      0.0489
    122  CD        -1.9970    4.3950    9.7160 C.3   288  ARG288      0.2205
    123  NE        -1.1020    5.4910   10.0960 N.pl3 288  ARG288     -0.0865
    124  CZ        -0.6600    6.4290    9.2610 C.cat 288  ARG288      0.5346
    125  NH1       -1.0280    6.4190    7.9900 N.pl3 288  ARG288      0.1354
    126  NH2        0.1510    7.3820    9.6950 N.pl3 288  ARG288      0.1354
    127  N          0.0560    0.4920   13.9120 N.3   290  TYR290     -0.1241
    128  CA         0.7050   -0.5860   13.1790 C.3   290  TYR290      0.1605
    129  C          0.9600   -1.7140   14.1720 C.2   290  TYR290      0.2264
    130  O          1.3820   -1.4680   15.3050 O.2   290  TYR290     -0.2867
    131  CB         2.0320   -0.0980   12.5830 C.3   290  TYR290      0.0534
    132  CG         1.8910    1.0810   11.6510 C.ar  290  TYR290     -0.0201
    133  CD1        1.1280    0.9840   10.4880 C.ar  290  TYR290     -0.0009
    134  CD2        2.5280    2.2980   11.9270 C.ar  290  TYR290     -0.0009
    135  CE1        0.9990    2.0660    9.6160 C.ar  290  TYR290      0.0417
    136  CE2        2.4090    3.3900   11.0600 C.ar  290  TYR290      0.0417
    137  CZ         1.6440    3.2650    9.9080 C.ar  290  TYR290      0.1957
    138  OH         1.5240    4.3240    9.0370 O.3   290  TYR290     -0.2866
@<TRIPOS>BOND
     1    55    54   ar
     2    56    54   ar
     3    54    53    1
     4    53    52    1
     5   111   110    2
     6    52    49    1
     7   110   109    1
     8    49    48    1
     9    49    50    1
    10   108   109    1
    11   109   112    1
    12    48    42   am
    13    50    51    2
    14   115   113   ar
    15   112   113    1
    16    40    41    1
    17   113   114   ar
    18    42    43    2
    19    42    41    1
    20    27    25    1
    21    25    26    1
    22    25    24    1
    23    41    44    1
    24    57    58    1
    25    20    21    1
    26    58    61    1
    27    58    59    1
    28    24    21    1
    29    61    62    1
    30    21    22    1
    31    44    45    1
    32    59    60    2
    33    46    45    1
    34    63    62   ar
    35    63    65   ar
    36    45    47    1
    37    62    64   ar
    38    22    28   am
    39    22    23    2
    40    28    29    1
    41    65    66   ar
    42    84    85    1
    43    64    66   ar
    44    91    89   ar
    45    85    86    1
    46    85    88    1
    47    31    30    2
    48    89    90   ar
    49    89    88    1
    50    86    87    2
    51    29    30    1
    52    29    32    1
    53    30    34   am
    54    32    33    1
    55    67    68    1
    56    78    77    1
    57    78    79    2
    58    68    69    1
    59    68    71    1
    60    76    77    1
    61    76    69   am
    62    34    35    1
    63   100    99    2
    64    77    80    1
    65    69    70    2
    66    99    98    1
    67    35    36    1
    68    35    38    1
    69    36    37    2
    70    74    73   ar
    71    92    93    1
    72   101    98    1
    73   101   102    1
    74    71    72    1
    75    97    98    1
    76    97    94   am
    77    73    72    1
    78    73    75   ar
    79   103   102   ar
    80   103   105   ar
    81    80    81    1
    82    39    38    1
    83   102   104   ar
    84    93    94    1
    85    93    96    1
    86    94    95    2
    87    81    82    1
    88   105   107   ar
    89   104   106   ar
    90   125   124    1
    91   107   106   ar
    92    82    83    1
    93     7     6    1
    94   138   137    1
    95   124   126    1
    96   124   123    2
    97   135   137   ar
    98   135   133   ar
    99   122   123    1
   100   122   121    1
   101     8     6    1
   102   137   136   ar
   103     6     5    1
   104    18    17    1
   105   133   132   ar
   106     5     2    1
   107   121   120    1
   108   136   134   ar
   109    15    14    1
   110    15    16    1
   111     2     1    1
   112     2     3    1
   113    17    16    2
   114    17    19    1
   115   120   117    1
   116   132   134   ar
   117   132   131    1
   118    14    13    1
   119     9     3   am
   120     9    10    1
   121     3     4    2
   122   131   128    1
   123   117   116    1
   124   117   118    1
   125    10    13    1
   126    10    11    1
   127   128   127    1
   128   128   129    1
   129   118   119    2
   130   129   130    2
   131    11    12    2
