@<TRIPOS>MOLECULE
tmp/1drwA00.pdb
 185 179 0 0 0
SMALL
GASTEIGER

@<TRIPOS>ATOM
      1  N         20.5950    4.3270   13.7960 N.3    10  ALA10      -0.1231
      2  CA        20.9890    5.5530   13.1880 C.3    10  ALA10       0.1694
      3  C         22.5030    5.6250   12.9700 C.2    10  ALA10       0.2592
      4  O         22.9680    5.2050   11.9380 O.2    10  ALA10      -0.2718
      5  CB        20.4720    6.7440   13.9820 C.3    10  ALA10       0.0304
      6  N         23.2480    6.3180   13.8070 N.am   11  GLY11      -0.1957
      7  CA        24.5670    6.7810   13.3980 C.3    11  GLY11       0.1869
      8  C         25.6560    5.6910   13.2930 C.2    11  GLY11       0.2309
      9  O         26.7430    5.8460   13.8610 O.2    11  GLY11      -0.2863
     10  N         28.5670    4.3900   12.2430 N.3    13  GLY13      -0.1210
     11  CA        30.0240    4.3610   12.5290 C.3    13  GLY13       0.1956
     12  C         30.3950    5.3590   13.6450 C.2    13  GLY13       0.2612
     13  O         31.5920    5.6940   13.8780 O.2    13  GLY13      -0.2717
     14  N         29.3440    5.8520   14.3110 N.am   14  GLY14      -0.1942
     15  CA        29.4700    6.5790   15.5700 C.3    14  GLY14       0.2014
     16  C         30.0600    5.6570   16.6640 C.2    14  GLY14       0.2639
     17  O         30.0500    4.3940   16.5600 O.2    14  GLY14      -0.2714
     18  N         30.6960    6.3080   17.6350 N.am   15  ARG15      -0.1963
     19  CA        31.1850    5.6100   18.8130 C.3    15  ARG15       0.1729
     20  C         29.9500    5.0150   19.4520 C.2    15  ARG15       0.2616
     21  O         29.8260    3.8370   19.4910 O.2    15  ARG15      -0.2715
     22  CB        31.8610    6.5910   19.7400 C.3    15  ARG15       0.0348
     23  CG        32.8090    7.5220   18.9850 C.3    15  ARG15       0.0492
     24  CD        33.5660    8.4380   19.9060 C.3    15  ARG15       0.2205
     25  NE        33.0010    9.7780   19.8820 N.pl3  15  ARG15      -0.0865
     26  CZ        33.1890   10.6750   20.8340 C.cat  15  ARG15       0.5346
     27  NH1       34.0370   10.4320   21.8260 N.pl3  15  ARG15       0.1354
     28  NH2       32.5820   11.8490   20.7330 N.pl3  15  ARG15       0.1354
     29  N         28.8780    5.7670   19.5130 N.am   16  MET16      -0.1977
     30  CA        27.6520    5.0920   19.8480 C.3    16  MET16       0.1605
     31  C         27.1420    3.9880   18.8900 C.2    16  MET16       0.2287
     32  O         26.8890    2.8450   19.3620 O.2    16  MET16      -0.2864
     33  CB        26.5880    6.0680   20.3140 C.3    16  MET16       0.0413
     34  CG        26.8960    6.6030   21.6990 C.3    16  MET16       0.0598
     35  SD        27.3740    5.2700   22.9770 S.3    16  MET16      -0.1393
     36  CE        25.7190    4.3540   23.1430 C.3    16  MET16       0.0692
     37  N         23.4310    5.4030    8.0940 N.3    37  GLU37      -0.1231
     38  CA        24.5770    6.2710    8.3440 C.3    37  GLU37       0.1699
     39  C         24.5040    7.4580    7.3730 C.2    37  GLU37       0.2592
     40  O         23.5140    7.5940    6.6190 O.2    37  GLU37      -0.2718
     41  CB        25.9030    5.5000    8.2410 C.3    37  GLU37       0.0402
     42  CG        27.1570    6.3560    8.2210 C.3    37  GLU37       0.1161
     43  CD        27.3840    7.1790    9.4830 C.2    37  GLU37       0.3649
     44  OE1       27.8980    6.6130   10.4800 O.co2  37  GLU37      -0.2457
     45  OE2       27.3170    8.4300    9.3740 O.co2  37  GLU37      -0.2457
     46  N         25.3840    8.4330    7.5800 N.am   38  ARG38      -0.1980
     47  CA        25.4070    9.6430    6.7490 C.3    38  ARG38       0.1597
     48  C         25.5820    9.2550    5.2740 C.2    38  ARG38       0.2287
     49  O         26.2210    8.2490    4.9560 O.2    38  ARG38      -0.2864
     50  CB        26.5650   10.5640    7.1570 C.3    38  ARG38       0.0334
     51  CG        26.2410   11.5850    8.1720 C.3    38  ARG38       0.0492
     52  CD        27.3960   12.5440    8.2780 C.3    38  ARG38       0.2205
     53  NE        26.9750   13.9310    8.4280 N.pl3  38  ARG38      -0.0865
     54  CZ        25.8320   14.4670    7.9680 C.cat  38  ARG38       0.5346
     55  NH1       24.9140   13.7420    7.3150 N.pl3  38  ARG38       0.1354
     56  NH2       25.6380   15.7820    8.1030 N.pl3  38  ARG38       0.1354
     57  N         21.3850    7.7580   18.1240 N.3    78  PHE78      -0.1227
     58  CA        22.4360    8.4670   18.8690 C.3    78  PHE78       0.1736
     59  C         23.2580    9.2550   17.8680 C.2    78  PHE78       0.2596
     60  O         24.3570    8.8120   17.4800 O.2    78  PHE78      -0.2718
     61  CB        23.3450    7.4590   19.6290 C.3    78  PHE78       0.0547
     62  CG        22.7290    6.9240   20.9280 C.ar   78  PHE78      -0.0202
     63  CD1       21.5340    6.1870   20.9050 C.ar   78  PHE78      -0.0042
     64  CD2       23.3280    7.1750   22.1620 C.ar   78  PHE78      -0.0042
     65  CE1       20.9220    5.7190   22.0750 C.ar   78  PHE78      -0.0003
     66  CE2       22.7020    6.7280   23.3650 C.ar   78  PHE78      -0.0003
     67  CZ        21.5610    5.8920   23.2930 C.ar   78  PHE78      -0.0000
     68  N         22.7940   10.4560   17.5090 N.am   79  THR79      -0.1939
     69  CA        23.2430   11.1270   16.2810 C.3    79  THR79       0.2028
     70  C         23.7440   12.5370   16.4640 C.2    79  THR79       0.2642
     71  O         24.7160   12.7160   17.1810 O.2    79  THR79      -0.2714
     72  CB        22.2400   10.8510   15.1000 C.3    79  THR79       0.1808
     73  OG1       22.7170    9.7390   14.3020 O.3    79  THR79      -0.2208
     74  CG2       21.9950   11.9760   14.2790 C.3    79  THR79       0.0379
     75  N         22.9900   13.5300   15.9810 N.am   80  ARG80      -0.1977
     76  CA        23.2040   14.9680   16.2050 C.3    80  ARG80       0.1597
     77  C         21.8160   15.4880   16.1510 C.2    80  ARG80       0.2287
     78  O         20.9950   14.8930   15.4890 O.2    80  ARG80      -0.2864
     79  CB        23.9860   15.5910   15.0420 C.3    80  ARG80       0.0334
     80  CG        24.9430   16.7250   15.4740 C.3    80  ARG80       0.0492
     81  CD        25.3340   16.6280   17.0150 C.3    80  ARG80       0.2205
     82  NE        26.4690   15.7180   17.3020 N.pl3  80  ARG80      -0.0865
     83  CZ        26.7720   15.2060   18.5030 C.cat  80  ARG80       0.5346
     84  NH1       26.0460   15.5320   19.5750 N.pl3  80  ARG80       0.1354
     85  NH2       27.8230   14.3860   18.6310 N.pl3  80  ARG80       0.1354
     86  N         20.1600   17.6940   14.5980 N.3    82  GLU82      -0.1231
     87  CA        19.7520   17.8530   13.1810 C.3    82  GLU82       0.1699
     88  C         19.1640   16.5790   12.5790 C.2    82  GLU82       0.2592
     89  O         18.0120   16.5490   12.1530 O.2    82  GLU82      -0.2718
     90  CB        20.9480   18.2700   12.3010 C.3    82  GLU82       0.0402
     91  CG        22.3400   18.3300   12.9970 C.3    82  GLU82       0.1161
     92  CD        22.4280   19.4770   14.0150 C.2    82  GLU82       0.3649
     93  OE1       21.6590   20.5030   13.8930 O.co2  82  GLU82      -0.2457
     94  OE2       23.2160   19.2960   14.9740 O.co2  82  GLU82      -0.2457
     95  N         19.9330   15.4990   12.6160 N.am   83  GLY83      -0.1957
     96  CA        19.4760   14.2170   12.0860 C.3    83  GLY83       0.1869
     97  C         18.2460   13.6820   12.7770 C.2    83  GLY83       0.2309
     98  O         17.3720   13.1030   12.1500 O.2    83  GLY83      -0.2863
     99  N         15.0560   14.8770   11.5000 N.3    86  ASN86      -0.1225
    100  CA        14.6830   14.3210   10.1850 C.3    86  ASN86       0.1785
    101  C         14.1040   12.9790   10.4540 C.2    86  ASN86       0.2597
    102  O         13.0040   12.6350   10.0050 O.2    86  ASN86      -0.2718
    103  CB        15.9210   14.0950    9.2710 C.3    86  ASN86       0.1169
    104  CG        16.6070   15.4120    8.8180 C.2    86  ASN86       0.2627
    105  OD1       15.9490   16.5000    8.6800 O.2    86  ASN86      -0.2716
    106  ND2       17.9350   15.3170    8.5150 N.am   86  ASN86      -0.0877
    107  N         14.9170   12.1980   11.1540 N.am   87  HIS87      -0.1975
    108  CA        14.5400   10.8830   11.6430 C.3    87  HIS87       0.1656
    109  C         13.1600   10.9870   12.2930 C.2    87  HIS87       0.2291
    110  O         12.3040   10.1280   12.1040 O.2    87  HIS87      -0.2864
    111  CB        15.5690   10.4270   12.6950 C.3    87  HIS87       0.0771
    112  CG        16.9780   10.3340   12.1700 C.ar   87  HIS87       0.0820
    113  ND1       17.2690    9.9410   10.8830 N.ar   87  HIS87      -0.2267
    114  CD2       18.1740   10.5290   12.7820 C.ar   87  HIS87       0.1154
    115  CE1       18.5810    9.9270   10.7170 C.ar   87  HIS87       0.1986
    116  NE2       19.1480   10.3330   11.8380 N.ar   87  HIS87      -0.2212
    117  N         18.8560    9.0400   22.1140 N.3   101  GLY101     -0.1210
    118  CA        19.9200    9.2220   23.1080 C.3   101  GLY101      0.1956
    119  C         20.7790   10.3770   22.7030 C.2   101  GLY101      0.2613
    120  O         21.4840   10.9610   23.5350 O.2   101  GLY101     -0.2717
    121  N         20.5230   10.8640   21.4990 N.am  102  THR102     -0.1938
    122  CA        21.0640   12.1430   21.0570 C.3   102  THR102      0.2028
    123  C         20.8570   13.2220   22.1170 C.2   102  THR102      0.2642
    124  O         19.7770   13.3350   22.7350 O.2   102  THR102     -0.2714
    125  CB        20.3830   12.6290   19.7700 C.3   102  THR102      0.1808
    126  OG1       20.5030   11.6080   18.7730 O.3   102  THR102     -0.2208
    127  CG2       21.0170   13.8990   19.2740 C.3   102  THR102      0.0379
    128  N         21.8810   14.0500   22.2910 N.am  103  THR103     -0.1950
    129  CA        21.8140   15.1510   23.2210 C.3   103  THR103      0.1897
    130  C         22.0680   16.5610   22.5680 C.2   103  THR103      0.2313
    131  O         22.6560   16.7150   21.4580 O.2   103  THR103     -0.2863
    132  CB        22.7860   14.9230   24.3480 C.3   103  THR103      0.1794
    133  OG1       24.1220   14.9960   23.8290 O.3   103  THR103     -0.2208
    134  CG2       22.5810   13.5440   24.9610 C.3   103  THR103      0.0378
    135  N         16.1400   10.0170   26.5540 N.3   125  ALA125     -0.1231
    136  CA        16.7530   10.0980   27.8530 C.3   125  ALA125      0.1694
    137  C         18.1470   10.6040   27.7340 C.2   125  ALA125      0.2592
    138  O         18.8010   10.3300   26.7310 O.2   125  ALA125     -0.2718
    139  CB        16.7610    8.7360   28.4680 C.3   125  ALA125      0.0304
    140  N         18.6300   11.3210   28.7580 N.am  126  ALA126     -0.1966
    141  CA        20.0520   11.7640   28.7830 C.3   126  ALA126      0.1728
    142  C         21.0830   10.8060   29.3810 C.2   126  ALA126      0.2616
    143  O         22.2510   11.0340   29.2500 O.2   126  ALA126     -0.2715
    144  CB        20.2220   13.1600   29.3280 C.3   126  ALA126      0.0334
    145  N         20.6500    9.6780   29.9000 N.am  127  ASN127     -0.1958
    146  CA        21.6100    8.7030   30.3590 C.3   127  ASN127      0.1819
    147  C         20.9640    7.4010   30.2710 C.2   127  ASN127      0.2621
    148  O         20.1060    7.0760   31.0710 O.2   127  ASN127     -0.2715
    149  CB        21.9910    8.9600   31.8100 C.3   127  ASN127      0.1195
    150  CG        23.1050    8.1260   32.2400 C.2   127  ASN127      0.2630
    151  OD1       24.0920    8.6450   32.7010 O.2   127  ASN127     -0.2716
    152  ND2       23.0630    6.8690   31.9420 N.am  127  ASN127     -0.0877
    153  N         21.4660    6.5980   29.3840 N.am  128  PHE128     -0.1974
    154  CA        20.8990    5.3250   29.1810 C.3   128  PHE128      0.1639
    155  C         21.5590    4.2520   29.9780 C.2   128  PHE128      0.2290
    156  O         21.4430    3.0860   29.5840 O.2   128  PHE128     -0.2864
    157  CB        21.0580    4.9570   27.7340 C.3   128  PHE128      0.0560
    158  CG        19.8520    5.3170   26.9010 C.ar  128  PHE128     -0.0200
    159  CD1       18.7180    4.4860   26.9120 C.ar  128  PHE128     -0.0042
    160  CD2       19.7870    6.5450   26.2600 C.ar  128  PHE128     -0.0042
    161  CE1       17.5490    4.8700   26.3200 C.ar  128  PHE128     -0.0003
    162  CE2       18.6530    6.8700   25.5170 C.ar  128  PHE128     -0.0003
    163  CZ        17.5020    6.0820   25.6110 C.ar  128  PHE128     -0.0000
    164  N         31.3240    2.5850   26.8660 N.3   239  ARG239     -0.1245
    165  CA        30.1290    3.2630   26.4600 C.3   239  ARG239      0.1563
    166  C         29.1200    2.2270   26.1920 C.2   239  ARG239      0.2260
    167  O         28.0040    2.5100   25.8880 O.2   239  ARG239     -0.2867
    168  CB        30.4250    4.0310   25.2100 C.3   239  ARG239      0.0307
    169  CG        30.2360    5.5170   25.4400 C.3   239  ARG239      0.0489
    170  CD        31.5110    6.3030   25.7520 C.3   239  ARG239      0.2205
    171  NE        32.2660    6.5970   24.5240 N.pl3 239  ARG239     -0.0865
    172  CZ        31.7440    7.0150   23.3670 C.cat 239  ARG239      0.5346
    173  NH1       30.4850    7.4630   23.2970 N.pl3 239  ARG239      0.1354
    174  NH2       32.5580    7.1830   22.3360 N.pl3 239  ARG239      0.1354
    175  N         25.5480    2.5260   28.1140 N.3   242  PHE242     -0.1241
    176  CA        24.4710    3.2610   27.3960 C.3   242  PHE242      0.1605
    177  C         23.7830    2.4790   26.3190 C.2   242  PHE242      0.2264
    178  O         22.5340    2.5210   26.1660 O.2   242  PHE242     -0.2867
    179  CB        25.0740    4.4950   26.7400 C.3   242  PHE242      0.0534
    180  CG        25.7240    5.3990   27.7170 C.ar  242  PHE242     -0.0203
    181  CD1       24.9920    5.8410   28.8330 C.ar  242  PHE242     -0.0042
    182  CD2       27.1110    5.5880   27.6880 C.ar  242  PHE242     -0.0042
    183  CE1       25.6380    6.5370   29.8490 C.ar  242  PHE242     -0.0003
    184  CE2       27.7450    6.3450   28.6420 C.ar  242  PHE242     -0.0003
    185  CZ        27.0300    6.7460   29.7760 C.ar  242  PHE242     -0.0000
@<TRIPOS>BOND
     1    49    48    2
     2    48    47    1
     3    40    39    2
     4    47    50    1
     5    47    46    1
     6    50    51    1
     7    55    54    1
     8    39    46   am
     9    39    38    1
    10    54    56    1
    11    54    53    2
    12    37    38    1
    13    51    52    1
    14    42    41    1
    15    42    43    1
    16    41    38    1
    17    52    53    1
    18   106   104   am
    19   105   104    2
    20   104   103    1
    21   103   100    1
    22    45    43   ar
    23    43    44   ar
    24   102   101    2
    25   100   101    1
    26   100    99    1
    27   101   107   am
    28   115   113   ar
    29   115   116   ar
    30   113   112   ar
    31   107   108    1
    32   108   109    1
    33   108   111    1
    34   116   114   ar
    35     4     3    2
    36    96    95    1
    37    96    97    1
    38   110   109    2
    39    98    97    2
    40    89    88    2
    41   112   111    1
    42   112   114   ar
    43    10    11    1
    44    90    91    1
    45    90    87    1
    46    11    12    1
    47    88    95   am
    48    88    87    1
    49     3     2    1
    50     3     6   am
    51    91    92    1
    52    87    86    1
    53     2     1    1
    54     2     5    1
    55     8     7    1
    56     8     9    2
    57     7     6    1
    58    12    13    2
    59    12    14   am
    60    93    92   ar
    61    92    94   ar
    62    74    72    1
    63    73    72    1
    64    14    15    1
    65    79    80    1
    66    79    76    1
    67    72    69    1
    68    80    81    1
    69    78    77    2
    70    15    16    1
    71    75    76    1
    72    75    70   am
    73    77    76    1
    74    69    70    1
    75    69    68    1
    76    70    71    2
    77    17    16    2
    78    16    18   am
    79    81    82    1
    80    82    83    2
    81    60    59    2
    82    68    59   am
    83    18    19    1
    84    59    58    1
    85    57    58    1
    86    83    85    1
    87    83    84    1
    88   126   125    1
    89    19    20    1
    90    19    22    1
    91    58    61    1
    92    31    32    2
    93    31    30    1
    94    23    22    1
    95    23    24    1
    96   127   125    1
    97    20    21    2
    98    20    29   am
    99    29    30    1
   100    61    62    1
   101   125   122    1
   102    30    33    1
   103    25    24    1
   104    25    26    2
   105    33    34    1
   106    28    26    1
   107    26    27    1
   108    63    62   ar
   109    63    65   ar
   110    62    64   ar
   111   122   121    1
   112   122   123    1
   113   131   130    2
   114   121   119   am
   115    34    35    1
   116    65    67   ar
   117   117   118    1
   118   123   128   am
   119   123   124    2
   120    64    66   ar
   121   128   129    1
   122   174   172    1
   123   130   129    1
   124   119   118    1
   125   119   120    2
   126    35    36    1
   127   129   132    1
   128    67    66   ar
   129   173   172    1
   130   172   171    2
   131   133   132    1
   132   132   134    1
   133   171   170    1
   134   168   169    1
   135   168   165    1
   136   169   170    1
   137   162   163   ar
   138   162   160   ar
   139   163   161   ar
   140   167   166    2
   141   178   177    2
   142   166   165    1
   143   160   158   ar
   144   177   176    1
   145   161   159   ar
   146   165   164    1
   147   135   136    1
   148   138   137    2
   149   179   176    1
   150   179   180    1
   151   158   159   ar
   152   158   157    1
   153   176   175    1
   154   182   180   ar
   155   182   184   ar
   156   180   181   ar
   157   157   154    1
   158   137   136    1
   159   137   140   am
   160   136   139    1
   161   184   185   ar
   162   140   141    1
   163   141   144    1
   164   141   142    1
   165   181   183   ar
   166   154   153    1
   167   154   155    1
   168   143   142    2
   169   142   145   am
   170   153   147   am
   171   156   155    2
   172   185   183   ar
   173   145   146    1
   174   147   146    1
   175   147   148    2
   176   146   149    1
   177   149   150    1
   178   152   150   am
   179   150   151    2
