@<TRIPOS>MOLECULE
tmp/1dryA00.pdb
 185 180 0 0 0
SMALL
GASTEIGER

@<TRIPOS>ATOM
      1  N          8.8200    8.4790   11.4350 N.3   113  LEU113     -0.1231
      2  CA         7.4580    8.7000   11.0070 C.3   113  LEU113      0.1693
      3  C          6.5700    9.2530   12.0870 C.2   113  LEU113      0.2591
      4  O          6.4790    8.6530   13.1630 O.2   113  LEU113     -0.2718
      5  CB         6.8870    7.3430   10.5540 C.3   113  LEU113      0.0284
      6  CG         5.4110    7.2850   10.1660 C.3   113  LEU113      0.0019
      7  CD1        5.2300    8.1790    8.9020 C.3   113  LEU113      0.0001
      8  CD2        4.9750    5.8440    9.8200 C.3   113  LEU113      0.0001
      9  N          5.9260   10.3860   11.8310 N.am  114  ARG114     -0.1980
     10  CA         5.0010   10.9470   12.8200 C.3   114  ARG114      0.1597
     11  C          5.6460   11.0930   14.1970 C.2   114  ARG114      0.2287
     12  O          5.0630   10.7380   15.2230 O.2   114  ARG114     -0.2864
     13  CB         3.7460   10.0740   12.9670 C.3   114  ARG114      0.0334
     14  CG         2.9750    9.8580   11.6170 C.3   114  ARG114      0.0492
     15  CD         2.3790   11.1220   11.0730 C.3   114  ARG114      0.2205
     16  NE         1.2260   11.5020   11.8650 N.pl3 114  ARG114     -0.0865
     17  CZ        -0.0680   11.3140   11.5490 C.cat 114  ARG114      0.5346
     18  NH1       -0.4720   10.7510   10.4330 N.pl3 114  ARG114      0.1354
     19  NH2       -0.9660   11.7200   12.4060 N.pl3 114  ARG114      0.1354
     20  N          1.5680   11.6990   -1.3980 N.3   131  LEU131     -0.1231
     21  CA         1.7030   10.3370   -0.8830 C.3   131  LEU131      0.1693
     22  C          1.2060   10.2450    0.5620 C.2   131  LEU131      0.2593
     23  O          1.2270    9.1690    1.1820 O.2   131  LEU131     -0.2718
     24  CB         3.1640    9.8780   -0.9660 C.3   131  LEU131      0.0284
     25  CG         3.7280    9.7460   -2.3900 C.3   131  LEU131      0.0019
     26  CD1        5.0540    8.9550   -2.3170 C.3   131  LEU131      0.0001
     27  CD2        2.7350    9.0030   -3.3170 C.3   131  LEU131      0.0001
     28  N          0.7260   11.3770    1.0680 N.am  132  SER132     -0.1938
     29  CA         0.2770   11.5070    2.4470 C.3   132  SER132      0.2055
     30  C         -1.1100   10.9940    2.7940 C.2   132  SER132      0.2643
     31  O         -2.0420   11.0900    2.0040 O.2   132  SER132     -0.2714
     32  CB         0.3520   12.9780    2.8870 C.3   132  SER132      0.2130
     33  OG        -0.0020   13.1030    4.2660 O.3   132  SER132     -0.2179
     34  N         -1.2160   10.4540    4.0000 N.am  133  SER133     -0.1949
     35  CA        -2.4830    9.9720    4.4890 C.3   133  SER133      0.1924
     36  C         -3.3610   11.2230    4.7790 C.2   133  SER133      0.2314
     37  O         -4.5370   11.0810    5.1340 O.2   133  SER133     -0.2863
     38  CB        -2.2530    9.1220    5.7690 C.3   133  SER133      0.2116
     39  OG        -1.7050    9.9210    6.8100 O.3   133  SER133     -0.2180
     40  N         -5.3260    8.3180   -2.9580 N.3   140  LEU140     -0.1231
     41  CA        -4.1290    7.8210   -2.2900 C.3   140  LEU140      0.1693
     42  C         -4.0080    6.4050   -2.8950 C.2   140  LEU140      0.2592
     43  O         -4.7870    5.5010   -2.5710 O.2   140  LEU140     -0.2718
     44  CB        -4.3520    7.7850   -0.7780 C.3   140  LEU140      0.0284
     45  CG        -3.1070    7.2730   -0.0520 C.3   140  LEU140      0.0019
     46  CD1       -1.9180    8.2120   -0.1150 C.3   140  LEU140      0.0001
     47  CD2       -3.5560    7.1060    1.4120 C.3   140  LEU140      0.0001
     48  N         -3.0640    6.2300   -3.8080 N.am  141  GLU141     -0.1966
     49  CA        -2.9550    4.9640   -4.5390 C.3   141  GLU141      0.1733
     50  C         -2.4850    3.7660   -3.7560 C.2   141  GLU141      0.2616
     51  O         -1.9100    3.9110   -2.6720 O.2   141  GLU141     -0.2715
     52  CB        -2.0890    5.1770   -5.7790 C.3   141  GLU141      0.0429
     53  CG        -2.9020    6.1680   -6.6610 C.3   141  GLU141      0.1163
     54  CD        -2.5460    6.1720   -8.1000 C.2   141  GLU141      0.3649
     55  OE1       -2.3580    5.0860   -8.6720 O.co2 141  GLU141     -0.2457
     56  OE2       -2.4690    7.2930   -8.6440 O.co2 141  GLU141     -0.2457
     57  N         -2.7930    2.5820   -4.3030 N.am  142  PHE142     -0.1960
     58  CA        -2.4640    1.3230   -3.6520 C.3   142  PHE142      0.1771
     59  C         -1.0340    1.2320   -3.1310 C.2   142  PHE142      0.2620
     60  O         -0.0710    1.4860   -3.8440 O.2   142  PHE142     -0.2715
     61  CB        -2.6480    0.1440   -4.6070 C.3   142  PHE142      0.0574
     62  CG        -4.0180   -0.4250   -4.6650 C.ar  142  PHE142     -0.0200
     63  CD1       -4.8220   -0.5290   -3.5380 C.ar  142  PHE142     -0.0042
     64  CD2       -4.4530   -1.0120   -5.8650 C.ar  142  PHE142     -0.0042
     65  CE1       -6.0280   -1.2000   -3.5800 C.ar  142  PHE142     -0.0003
     66  CE2       -5.6700   -1.6930   -5.9030 C.ar  142  PHE142     -0.0003
     67  CZ        -6.4600   -1.7850   -4.7650 C.ar  142  PHE142     -0.0000
     68  N         -0.9260    0.8480   -1.8720 N.am  143  HIS143     -0.1959
     69  CA         0.3520    0.6020   -1.2350 C.3   143  HIS143      0.1787
     70  C          0.1950   -0.4170   -0.1010 C.2   143  HIS143      0.2621
     71  O         -0.8240   -0.4660    0.6130 O.2   143  HIS143     -0.2715
     72  CB         0.9560    1.8750   -0.6280 C.3   143  HIS143      0.0785
     73  CG         0.0760    2.5520    0.3830 C.ar  143  HIS143      0.0821
     74  ND1       -1.0340    3.2890    0.0290 N.ar  143  HIS143     -0.2267
     75  CD2        0.1150    2.5530    1.7350 C.ar  143  HIS143      0.1154
     76  CE1       -1.6590    3.6970    1.1290 C.ar  143  HIS143      0.1986
     77  NE2       -0.9780    3.2610    2.1770 N.ar  143  HIS143     -0.2212
     78  N          1.2170   -1.2590    0.0060 N.am  144  THR144     -0.1937
     79  CA         1.4050   -2.1710    1.1450 C.3   144  THR144      0.2028
     80  C          2.1680   -1.2030    2.0430 C.2   144  THR144      0.2642
     81  O          3.1320   -0.5660    1.5830 O.2   144  THR144     -0.2714
     82  CB         2.3290   -3.3000    0.7500 C.3   144  THR144      0.1808
     83  OG1        1.6580   -4.1000   -0.2250 O.3   144  THR144     -0.2208
     84  CG2        2.6580   -4.1410    1.9820 C.3   144  THR144      0.0379
     85  N          1.7850   -1.0740    3.3160 N.am  145  GLU145     -0.1963
     86  CA         2.4760   -0.0970    4.1560 C.3   145  GLU145      0.1733
     87  C          3.9090   -0.4790    4.4750 C.2   145  GLU145      0.2616
     88  O          4.1690   -1.5400    5.0010 O.2   145  GLU145     -0.2715
     89  CB         1.7490    0.0680    5.4910 C.3   145  GLU145      0.0429
     90  CG         1.9680    1.4440    6.1710 C.3   145  GLU145      0.1163
     91  CD         0.9240    2.4710    5.8230 C.2   145  GLU145      0.3649
     92  OE1        0.0090    2.2160    4.9500 O.co2 145  GLU145     -0.2457
     93  OE2        0.9790    3.5650    6.4480 O.co2 145  GLU145     -0.2457
     94  N          4.8250    0.4310    4.1360 N.am  146  MET146     -0.1977
     95  CA         6.2510    0.2410    4.4720 C.3   146  MET146      0.1605
     96  C          6.7730   -1.1040    3.9710 C.2   146  MET146      0.2287
     97  O          7.4910   -1.8100    4.6670 O.2   146  MET146     -0.2864
     98  CB         6.4320    0.3670    6.0030 C.3   146  MET146      0.0413
     99  CG         6.2920    1.8230    6.4480 C.3   146  MET146      0.0598
    100  SD         6.5310    2.0670    8.2450 S.3   146  MET146     -0.1393
    101  CE         4.8860    1.6170    8.8440 C.3   146  MET146      0.0692
    102  N          9.0310   -1.6280    1.9920 N.3   148  TYR148     -0.1241
    103  CA        10.4830   -1.4640    1.8990 C.3   148  TYR148      0.1605
    104  C         11.2250   -1.4410    3.2240 C.2   148  TYR148      0.2264
    105  O         12.4520   -1.3580    3.2340 O.2   148  TYR148     -0.2867
    106  CB        10.7540   -0.1510    1.1550 C.3   148  TYR148      0.0534
    107  CG        10.0350    0.9990    1.8200 C.ar  148  TYR148     -0.0201
    108  CD1       10.5100    1.5430    3.0290 C.ar  148  TYR148     -0.0009
    109  CD2        8.8250    1.4820    1.3050 C.ar  148  TYR148     -0.0009
    110  CE1        9.7930    2.5260    3.7150 C.ar  148  TYR148      0.0417
    111  CE2        8.0870    2.4520    1.9790 C.ar  148  TYR148      0.0417
    112  CZ         8.5780    2.9730    3.1890 C.ar  148  TYR148      0.1957
    113  OH         7.8420    3.8920    3.8990 O.3   148  TYR148     -0.2866
    114  N          8.9360    6.0200    1.7040 N.3   201  ASP201     -0.1239
    115  CA         8.0360    7.1340    1.9730 C.3   201  ASP201      0.1674
    116  C          8.8220    8.3600    2.3930 C.2   201  ASP201      0.2266
    117  O          9.9600    8.2530    2.8730 O.2   201  ASP201     -0.2867
    118  CB         6.9870    6.7370    3.0150 C.3   201  ASP201      0.1410
    119  CG         5.8950    5.8520    2.4110 C.2   201  ASP201      0.3668
    120  OD1        5.7380    4.6940    2.8370 O.co2 201  ASP201     -0.2456
    121  OD2        5.2010    6.3660    1.5200 O.co2 201  ASP201     -0.2456
    122  N          8.8400   10.2590    4.8810 N.3   203  ALA203     -0.1231
    123  CA         9.4060   10.2690    6.2280 C.3   203  ALA203      0.1694
    124  C         10.7680    9.5950    6.3710 C.2   203  ALA203      0.2592
    125  O         11.5570    9.9610    7.2590 O.2   203  ALA203     -0.2718
    126  CB         8.4070    9.6110    7.2100 C.3   203  ALA203      0.0304
    127  N         11.0200    8.5750    5.5430 N.am  204  PHE204     -0.1976
    128  CA        12.2490    7.7990    5.6180 C.3   204  PHE204      0.1639
    129  C         13.3510    8.2410    4.6890 C.2   204  PHE204      0.2290
    130  O         14.3720    7.5660    4.5980 O.2   204  PHE204     -0.2864
    131  CB        11.9320    6.3090    5.3710 C.3   204  PHE204      0.0560
    132  CG        10.9470    5.7470    6.3660 C.ar  204  PHE204     -0.0200
    133  CD1        9.6350    5.4820    5.9740 C.ar  204  PHE204     -0.0042
    134  CD2       11.3020    5.5790    7.6870 C.ar  204  PHE204     -0.0042
    135  CE1        8.7140    5.0670    6.9180 C.ar  204  PHE204     -0.0003
    136  CE2       10.3870    5.1690    8.6200 C.ar  204  PHE204     -0.0003
    137  CZ         9.0670    4.9110    8.2130 C.ar  204  PHE204     -0.0000
    138  N          3.6520   -1.3940   -4.1480 N.3   225  ASP225     -0.1239
    139  CA         3.4280    0.0220   -3.9130 C.3   225  ASP225      0.1674
    140  C          3.3680    0.6610   -5.3090 C.2   225  ASP225      0.2266
    141  O          4.3760    0.7100   -6.0340 O.2   225  ASP225     -0.2867
    142  CB         4.5460    0.6220   -3.0710 C.3   225  ASP225      0.1410
    143  CG         4.2300    2.0420   -2.6320 C.2   225  ASP225      0.3668
    144  OD1        4.3970    2.3490   -1.4520 O.co2 225  ASP225     -0.2456
    145  OD2        3.8150    2.8540   -3.4700 O.co2 225  ASP225     -0.2456
    146  N          3.2450    3.6340   -6.2950 N.3   227  GLU227     -0.1231
    147  CA         4.0480    4.8350   -6.4560 C.3   227  GLU227      0.1699
    148  C          5.5310    4.6070   -6.2750 C.2   227  GLU227      0.2592
    149  O          6.3500    5.2540   -6.9240 O.2   227  GLU227     -0.2718
    150  CB         3.6840    5.8680   -5.3740 C.3   227  GLU227      0.0402
    151  CG         2.2380    6.3620   -5.3810 C.3   227  GLU227      0.1161
    152  CD         1.9540    7.3340   -6.4940 C.2   227  GLU227      0.3649
    153  OE1        0.7870    7.7590   -6.6130 O.co2 227  GLU227     -0.2457
    154  OE2        2.8880    7.6750   -7.2420 O.co2 227  GLU227     -0.2457
    155  N          5.8780    3.6980   -5.3840 N.am  228  LEU228     -0.1980
    156  CA         7.2820    3.5260   -4.9910 C.3   228  LEU228      0.1596
    157  C          8.0600    2.3580   -5.5420 C.2   228  LEU228      0.2287
    158  O          9.2780    2.4430   -5.6540 O.2   228  LEU228     -0.2864
    159  CB         7.4200    3.4850   -3.4560 C.3   228  LEU228      0.0297
    160  CG         6.8360    4.6590   -2.6580 C.3   228  LEU228      0.0022
    161  CD1        7.1290    4.4570   -1.1570 C.3   228  LEU228      0.0001
    162  CD2        7.4510    5.9380   -3.1630 C.3   228  LEU228      0.0001
    163  N         -4.8790    5.3350   13.4660 N.3   289  ARG289     -0.1245
    164  CA        -4.0750    4.2640   12.8820 C.3   289  ARG289      0.1563
    165  C         -3.0150    3.7440   13.8270 C.2   289  ARG289      0.2260
    166  O         -2.3550    4.5170   14.5150 O.2   289  ARG289     -0.2867
    167  CB        -3.3830    4.8100   11.6200 C.3   289  ARG289      0.0307
    168  CG        -2.5410    3.7630   10.8800 C.3   289  ARG289      0.0489
    169  CD        -1.8980    4.4020    9.6880 C.3   289  ARG289      0.2205
    170  NE        -0.9020    5.4100   10.0640 N.pl3 289  ARG289     -0.0865
    171  CZ        -0.5310    6.3800    9.2500 C.cat 289  ARG289      0.5346
    172  NH1       -1.1050    6.4950    8.0520 N.pl3 289  ARG289      0.1354
    173  NH2        0.4810    7.1680    9.5990 N.pl3 289  ARG289      0.1354
    174  N          0.0530    0.3410   13.9780 N.3   291  TYR291     -0.1241
    175  CA         0.7700   -0.7200   13.2670 C.3   291  TYR291      0.1605
    176  C          1.0520   -1.8380   14.2630 C.2   291  TYR291      0.2264
    177  O          1.5220   -1.5690   15.3650 O.2   291  TYR291     -0.2867
    178  CB         2.1200   -0.1910   12.7210 C.3   291  TYR291      0.0534
    179  CG         1.9630    0.9930   11.7950 C.ar  291  TYR291     -0.0201
    180  CD1        1.1690    0.8890   10.6740 C.ar  291  TYR291     -0.0009
    181  CD2        2.6550    2.1660   12.0100 C.ar  291  TYR291     -0.0009
    182  CE1        1.0690    1.9140    9.7570 C.ar  291  TYR291      0.0417
    183  CE2        2.5630    3.2260   11.0870 C.ar  291  TYR291      0.0417
    184  CZ         1.7830    3.0740    9.9760 C.ar  291  TYR291      0.1957
    185  OH         1.7860    4.0710    8.9940 O.3   291  TYR291     -0.2866
@<TRIPOS>BOND
     1    55    54   ar
     2    56    54   ar
     3    54    53    1
     4   154   152   ar
     5   149   148    2
     6    53    52    1
     7   153   152   ar
     8   152   151    1
     9   147   146    1
    10   147   148    1
    11   147   150    1
    12   148   155   am
    13   141   140    2
    14    66    64   ar
    15    66    67   ar
    16    64    62   ar
    17    52    49    1
    18   158   157    2
    19   157   156    1
    20   155   156    1
    21   151   150    1
    22   140   139    1
    23   156   159    1
    24    67    65   ar
    25    62    61    1
    26    62    63   ar
    27    61    58    1
    28    49    48    1
    29    49    50    1
    30    57    50   am
    31    57    58    1
    32   138   139    1
    33   139   142    1
    34    60    59    2
    35    48    42   am
    36    50    51    2
    37    58    59    1
    38    65    63   ar
    39   145   143   ar
    40   159   160    1
    41    27    25    1
    42   162   160    1
    43    59    68   am
    44   142   143    1
    45    40    41    1
    46    42    43    2
    47    42    41    1
    48   160   161    1
    49   143   144   ar
    50    25    26    1
    51    25    24    1
    52    41    44    1
    53    68    69    1
    54    20    21    1
    55    69    72    1
    56    69    70    1
    57    24    21    1
    58    21    22    1
    59    44    45    1
    60    72    73    1
    61    83    82    1
    62    46    45    1
    63    70    78   am
    64    70    71    2
    65    45    47    1
    66    78    79    1
    67    74    73   ar
    68    74    76   ar
    69    73    75   ar
    70    22    28   am
    71    22    23    2
    72    82    79    1
    73    82    84    1
    74    28    29    1
    75    76    77   ar
    76    79    80    1
    77   106   107    1
    78   106   103    1
    79   109   107   ar
    80   109   111   ar
    81   121   119   ar
    82    81    80    2
    83   114   115    1
    84    75    77   ar
    85   107   108   ar
    86   103   102    1
    87   103   104    1
    88   115   116    1
    89   115   118    1
    90   111   112   ar
    91    31    30    2
    92    80    85   am
    93   116   117    2
    94   119   120   ar
    95   119   118    1
    96    29    30    1
    97    29    32    1
    98    30    34   am
    99    32    33    1
   100   108   110   ar
   101   112   110   ar
   102   112   113    1
   103   104   105    2
   104    85    86    1
   105    96    95    1
   106    96    97    2
   107    34    35    1
   108    94    95    1
   109    94    87   am
   110    86    87    1
   111    86    89    1
   112    95    98    1
   113    87    88    2
   114    35    36    1
   115    35    38    1
   116   130   129    2
   117   129   128    1
   118    36    37    2
   119   122   123    1
   120    92    91   ar
   121   131   128    1
   122   131   132    1
   123    89    90    1
   124   127   128    1
   125   127   124   am
   126    38    39    1
   127    91    90    1
   128    91    93   ar
   129   133   132   ar
   130   133   135   ar
   131    98    99    1
   132   123   124    1
   133   123   126    1
   134   132   134   ar
   135   124   125    2
   136    99   100    1
   137   135   137   ar
   138   134   136   ar
   139   172   171    1
   140   137   136   ar
   141   100   101    1
   142     7     6    1
   143   185   184    1
   144   171   173    1
   145   171   170    2
   146   169   170    1
   147   169   168    1
   148   182   184   ar
   149   182   180   ar
   150     8     6    1
   151   184   183   ar
   152     6     5    1
   153    18    17    1
   154     5     2    1
   155   180   179   ar
   156   168   167    1
   157     2     1    1
   158     2     3    1
   159    15    14    1
   160    15    16    1
   161   183   181   ar
   162    17    16    2
   163    17    19    1
   164    14    13    1
   165   167   164    1
   166   179   181   ar
   167   179   178    1
   168     9     3   am
   169     9    10    1
   170     3     4    2
   171   178   175    1
   172    10    13    1
   173    10    11    1
   174   164   163    1
   175   164   165    1
   176   175   174    1
   177   175   176    1
   178   165   166    2
   179    11    12    2
   180   176   177    2
