@<TRIPOS>MOLECULE
tmp/1ds1A00.pdb
 126 115 0 0 0
SMALL
GASTEIGER

@<TRIPOS>ATOM
      1  N         -6.1150   10.6420   11.5590 N.3   122  VAL122     -0.1245
      2  CA        -6.1290   10.8030   10.0830 C.3   122  VAL122      0.1561
      3  C         -7.3350   11.7060    9.7490 C.2   122  VAL122      0.2260
      4  O         -8.5060   11.2760    9.8540 O.2   122  VAL122     -0.2867
      5  CB        -6.1720    9.4360    9.3680 C.3   122  VAL122      0.0252
      6  CG1       -6.3380    9.6190    7.8690 C.3   122  VAL122      0.0019
      7  CG2       -4.9200    8.6280    9.6660 C.3   122  VAL122      0.0019
      8  N         -1.8590   11.0820    4.1170 N.3   133  SER133     -0.1217
      9  CA        -3.1560   10.7660    4.6800 C.3   133  SER133      0.1889
     10  C         -4.0790   11.9580    4.8710 C.2   133  SER133      0.2288
     11  O         -5.2680   11.8710    5.1270 O.2   133  SER133     -0.2866
     12  CB        -2.9720   10.0490    6.0350 C.3   133  SER133      0.2089
     13  OG        -2.8270   11.0180    7.0900 O.3   133  SER133     -0.2183
     14  N         -5.6880    9.3100   -2.9880 N.3   140  LEU140     -0.1245
     15  CA        -4.4840    8.7820   -2.3650 C.3   140  LEU140      0.1561
     16  C         -4.2290    7.4120   -2.9980 C.2   140  LEU140      0.2260
     17  O         -4.9880    6.4730   -2.7450 O.2   140  LEU140     -0.2867
     18  CB        -4.6830    8.6930   -0.8690 C.3   140  LEU140      0.0270
     19  CG        -3.5090    8.1100   -0.0680 C.3   140  LEU140      0.0019
     20  CD1       -2.2700    9.0270   -0.1420 C.3   140  LEU140      0.0001
     21  CD2       -3.9930    7.8600    1.3660 C.3   140  LEU140      0.0001
     22  N         -0.8150    2.0450   -2.0990 N.3   143  HIS143     -0.1241
     23  CA         0.4420    1.7970   -1.4450 C.3   143  HIS143      0.1621
     24  C          0.2840    0.6600   -0.4450 C.2   143  HIS143      0.2264
     25  O         -0.6830    0.5910    0.3050 O.2   143  HIS143     -0.2867
     26  CB         0.9820    3.0670   -0.7630 C.3   143  HIS143      0.0745
     27  CG         0.0220    3.6210    0.2710 C.ar  143  HIS143      0.0817
     28  ND1       -1.1430    4.2760   -0.0610 N.ar  143  HIS143     -0.2268
     29  CD2        0.0430    3.6430    1.6030 C.ar  143  HIS143      0.1154
     30  CE1       -1.7790    4.6350    1.0460 C.ar  143  HIS143      0.1986
     31  NE2       -1.0560    4.2480    2.1320 N.ar  143  HIS143     -0.2212
     32  N          1.9620    0.0250    3.0810 N.3   145  GLU145     -0.1245
     33  CA         2.5130    1.0150    4.0060 C.3   145  GLU145      0.1567
     34  C          3.9720    0.7090    4.3180 C.2   145  GLU145      0.2260
     35  O          4.3000   -0.3870    4.8040 O.2   145  GLU145     -0.2867
     36  CB         1.7230    1.0610    5.2940 C.3   145  GLU145      0.0388
     37  CG         1.8100    2.3850    6.0180 C.3   145  GLU145      0.1160
     38  CD         0.6700    3.3600    5.7130 C.2   145  GLU145      0.3649
     39  OE1       -0.1530    3.1400    4.8100 O.co2 145  GLU145     -0.2457
     40  OE2        0.6160    4.3670    6.4800 O.co2 145  GLU145     -0.2457
     41  N         -1.8520   -2.5610    9.1280 N.3   156  VAL156     -0.1245
     42  CA        -2.3460   -1.1780    9.3200 C.3   156  VAL156      0.1561
     43  C         -3.7660   -1.3170    9.8450 C.2   156  VAL156      0.2260
     44  O         -4.5650   -2.0090    9.1790 O.2   156  VAL156     -0.2867
     45  CB        -2.2890   -0.3290    8.0530 C.3   156  VAL156      0.0252
     46  CG1       -2.8170    1.0900    8.3330 C.3   156  VAL156      0.0019
     47  CG2       -0.8930   -0.3020    7.4430 C.3   156  VAL156      0.0019
     48  N         -7.2350    0.9170   10.8870 N.3   158  LEU158     -0.1245
     49  CA        -7.9060    2.1950   10.7150 C.3   158  LEU158      0.1561
     50  C         -9.2700    2.0960   11.3920 C.2   158  LEU158      0.2260
     51  O        -10.1380    1.3300   10.9820 O.2   158  LEU158     -0.2867
     52  CB        -8.1070    2.5200    9.2290 C.3   158  LEU158      0.0270
     53  CG        -6.8270    2.6730    8.4100 C.3   158  LEU158      0.0019
     54  CD1       -7.0610    2.7240    6.9230 C.3   158  LEU158      0.0001
     55  CD2       -6.0270    3.9080    8.8060 C.3   158  LEU158      0.0001
     56  N        -12.2530    3.6250    1.1530 N.3   171  THR171     -0.1218
     57  CA       -10.9470    3.0210    1.3980 C.3   171  THR171      0.1862
     58  C        -10.8530    1.7980    0.4570 C.2   171  THR171      0.2287
     59  O        -11.7050    0.9070    0.5300 O.2   171  THR171     -0.2866
     60  CB       -10.7570    2.6080    2.8450 C.3   171  THR171      0.1770
     61  OG1      -11.0280    3.7900    3.6700 O.3   171  THR171     -0.2211
     62  CG2       -9.3690    2.0570    3.1300 C.3   171  THR171      0.0375
     63  N        -15.7470    3.4680    5.2510 N.3   263  LEU263     -0.1245
     64  CA       -15.6500    3.4580    6.7000 C.3   263  LEU263      0.1561
     65  C        -16.7020    4.3710    7.3260 C.2   263  LEU263      0.2260
     66  O        -16.7840    5.5550    6.9510 O.2   263  LEU263     -0.2867
     67  CB       -14.2420    3.8630    7.1560 C.3   263  LEU263      0.0270
     68  CG       -13.1190    2.9120    6.7120 C.3   263  LEU263      0.0019
     69  CD1      -11.7440    3.4960    7.1100 C.3   263  LEU263      0.0001
     70  CD2      -13.2870    1.5320    7.3030 C.3   263  LEU263      0.0001
     71  N         -3.3760   -0.4110   -0.3390 N.3   278  HIS278     -0.1226
     72  CA        -4.6110    0.3500   -0.0230 C.3   278  HIS278      0.1752
     73  C         -4.5150    1.7680   -0.5450 C.2   278  HIS278      0.2596
     74  O         -3.4290    2.3120   -0.8620 O.2   278  HIS278     -0.2718
     75  CB        -4.9670    0.3020    1.4580 C.3   278  HIS278      0.0759
     76  CG        -3.9670    0.9400    2.3420 C.ar  278  HIS278      0.0818
     77  ND1       -2.8100    0.3030    2.7820 N.ar  278  HIS278     -0.2268
     78  CD2       -3.9140    2.1600    2.8990 C.ar  278  HIS278      0.1154
     79  CE1       -2.1500    1.1790    3.5400 C.ar  278  HIS278      0.1986
     80  NE2       -2.7840    2.3240    3.6550 N.ar  278  HIS278     -0.2212
     81  N         -5.6820    2.4100   -0.6220 N.am  279  ALA279     -0.1966
     82  CA        -5.8620    3.7320   -1.2440 C.3   279  ALA279      0.1728
     83  C         -7.0800    4.4000   -0.6770 C.2   279  ALA279      0.2616
     84  O         -7.8710    3.7530    0.0460 O.2   279  ALA279     -0.2715
     85  CB        -6.0590    3.5300   -2.7440 C.3   279  ALA279      0.0334
     86  N         -7.3420    5.6600   -0.9530 N.am  280  ARG280     -0.1977
     87  CA        -8.5320    6.3630   -0.5150 C.3   280  ARG280      0.1597
     88  C         -9.0260    7.3190   -1.5830 C.2   280  ARG280      0.2287
     89  O         -8.2370    8.1000   -2.1590 O.2   280  ARG280     -0.2864
     90  CB        -8.2990    7.1290    0.7970 C.3   280  ARG280      0.0334
     91  CG        -9.5500    7.6670    1.4380 C.3   280  ARG280      0.0492
     92  CD        -9.5820    9.0910    1.8800 C.3   280  ARG280      0.2205
     93  NE        -9.2670    9.9760    0.7310 N.pl3 280  ARG280     -0.0865
     94  CZ        -8.1230   10.6090    0.4360 C.cat 280  ARG280      0.5346
     95  NH1       -7.1310   10.4030    1.3050 N.pl3 280  ARG280      0.1354
     96  NH2       -8.0420   11.3600   -0.6710 N.pl3 280  ARG280      0.1354
     97  N        -13.9780   14.2850    8.4850 N.3   292  ARG292     -0.1245
     98  CA       -13.5750   12.8890    8.5880 C.3   292  ARG292      0.1563
     99  C        -12.4230   12.7240    9.5890 C.2   292  ARG292      0.2260
    100  O        -11.4650   13.5220    9.5700 O.2   292  ARG292     -0.2867
    101  CB       -13.1800   12.3670    7.1950 C.3   292  ARG292      0.0307
    102  CG       -12.9380   10.8430    7.1710 C.3   292  ARG292      0.0489
    103  CD       -12.8900   10.3810    5.7330 C.3   292  ARG292      0.2205
    104  NE       -12.6980    8.9640    5.4950 N.pl3 292  ARG292     -0.0865
    105  CZ       -11.5230    8.3460    5.2790 C.cat 292  ARG292      0.5346
    106  NH1      -10.3720    8.9970    5.3480 N.pl3 292  ARG292      0.1354
    107  NH2      -11.5300    7.0440    5.0000 N.pl3 292  ARG292      0.1354
    108  N        -10.2870    9.4240   11.3190 N.3   294  LEU294     -0.1245
    109  CA        -9.8600    8.0700   11.5880 C.3   294  LEU294      0.1561
    110  C         -8.7300    8.0920   12.6150 C.2   294  LEU294      0.2260
    111  O         -8.0220    9.0880   12.7970 O.2   294  LEU294     -0.2867
    112  CB        -9.3560    7.2900   10.3720 C.3   294  LEU294      0.0270
    113  CG       -10.1290    7.4290    9.0580 C.3   294  LEU294      0.0019
    114  CD1       -9.4440    6.5440    7.9780 C.3   294  LEU294      0.0001
    115  CD2      -11.5930    7.0910    9.1700 C.3   294  LEU294      0.0001
    116  N         -5.2780    5.6770   13.3610 N.3   296  ARG296     -0.1245
    117  CA        -4.4140    4.6980   12.7550 C.3   296  ARG296      0.1563
    118  C         -3.3510    4.2070   13.7070 C.2   296  ARG296      0.2260
    119  O         -2.7170    5.0210   14.4210 O.2   296  ARG296     -0.2867
    120  CB        -3.7360    5.3020   11.5030 C.3   296  ARG296      0.0307
    121  CG        -2.7530    4.3930   10.8000 C.3   296  ARG296      0.0489
    122  CD        -2.1360    5.0440    9.5830 C.3   296  ARG296      0.2205
    123  NE        -1.2710    6.1370    9.9360 N.pl3 296  ARG296     -0.0865
    124  CZ        -0.8220    7.1330    9.1610 C.cat 296  ARG296      0.5346
    125  NH1       -1.2890    7.1670    7.8960 N.pl3 296  ARG296      0.1354
    126  NH2       -0.0110    8.1140    9.4130 N.pl3 296  ARG296      0.1354
@<TRIPOS>BOND
     1    16    17    2
     2    16    15    1
     3    14    15    1
     4    85    82    1
     5    15    18    1
     6    89    88    2
     7    22    23    1
     8    88    87    1
     9    23    26    1
    10    23    24    1
    11    82    83    1
    12    82    81    1
    13    86    83   am
    14    86    87    1
    15    18    19    1
    16    74    73    2
    17    26    27    1
    18    83    84    2
    19    96    94    1
    20    81    73   am
    21    73    72    1
    22    87    90    1
    23    24    25    2
    24    71    72    1
    25    20    19    1
    26    19    21    1
    27    28    27   ar
    28    28    30   ar
    29    72    75    1
    30    27    29   ar
    31    94    93    2
    32    94    95    1
    33    58    59    2
    34    58    57    1
    35    93    92    1
    36    90    91    1
    37    30    31   ar
    38    56    57    1
    39    57    60    1
    40    91    92    1
    41    75    76    1
    42    29    31   ar
    43    76    77   ar
    44    76    78   ar
    45    77    79   ar
    46    60    62    1
    47    60    61    1
    48    78    80   ar
    49    32    33    1
    50    79    80   ar
    51    33    34    1
    52    33    36    1
    53     8     9    1
    54    34    35    2
    55     9    10    1
    56     9    12    1
    57    39    38   ar
    58    10    11    2
    59   107   105    1
    60    63    64    1
    61   105   106    1
    62   105   104    2
    63    36    37    1
    64   104   103    1
    65    38    37    1
    66    38    40   ar
    67   103   102    1
    68    12    13    1
    69    64    67    1
    70    64    65    1
    71    68    69    1
    72    68    67    1
    73    68    70    1
    74    54    53    1
    75    66    65    2
    76   102   101    1
    77   101    98    1
    78    47    45    1
    79     6     5    1
    80   125   124    1
    81   114   113    1
    82    45    46    1
    83    45    42    1
    84    53    55    1
    85    53    52    1
    86    97    98    1
    87    98    99    1
    88   113   115    1
    89   113   112    1
    90    41    42    1
    91   124   126    1
    92   124   123    2
    93    44    43    2
    94    52    49    1
    95    42    43    1
    96     5     7    1
    97     5     2    1
    98   100    99    2
    99   122   123    1
   100   122   121    1
   101     3     4    2
   102     3     2    1
   103     2     1    1
   104   112   109    1
   105    49    48    1
   106    49    50    1
   107   121   120    1
   108    51    50    2
   109   108   109    1
   110   120   117    1
   111   109   110    1
   112   110   111    2
   113   117   116    1
   114   117   118    1
   115   118   119    2
