@<TRIPOS>MOLECULE
tmp/1ds5A00.pdb
 150 142 0 0 0
SMALL
GASTEIGER

@<TRIPOS>ATOM
      1  N         61.0540  121.0860  -57.6720 N.3    40  VAL40      -0.1231
      2  CA        61.1370  119.6700  -57.4990 C.3    40  VAL40       0.1692
      3  C         60.0390  118.8410  -58.2200 C.2    40  VAL40       0.2593
      4  O         60.0790  117.5870  -58.3350 O.2    40  VAL40      -0.2718
      5  CB        61.4100  119.4270  -56.0390 C.3    40  VAL40       0.0266
      6  CG1       60.2130  118.7520  -55.3420 C.3    40  VAL40       0.0020
      7  CG2       62.8240  118.7950  -55.9300 C.3    40  VAL40       0.0020
      8  N         59.1220  119.5650  -58.8440 N.am   41  GLY41      -0.1942
      9  CA        58.0950  118.8790  -59.6050 C.3    41  GLY41       0.2014
     10  C         57.4110  119.9080  -60.4560 C.2    41  GLY41       0.2638
     11  O         57.4930  121.0820  -60.1280 O.2    41  GLY41      -0.2714
     12  N         56.7480  119.4930  -61.5260 N.am   42  ARG42      -0.1977
     13  CA        56.0840  120.4450  -62.4380 C.3    42  ARG42       0.1597
     14  C         54.9030  119.7440  -63.0750 C.2    42  ARG42       0.2287
     15  O         55.0660  119.1590  -64.1470 O.2    42  ARG42      -0.2864
     16  CB        56.9410  120.8420  -63.6900 C.3    42  ARG42       0.0334
     17  CG        58.3700  121.5330  -63.5420 C.3    42  ARG42       0.0492
     18  CD        59.5430  120.9390  -64.4800 C.3    42  ARG42       0.2205
     19  NE        60.8470  121.6770  -64.3990 N.pl3  42  ARG42      -0.0865
     20  CZ        62.0820  121.1680  -64.0860 C.cat  42  ARG42       0.5346
     21  NH1       62.2840  119.8740  -63.8000 N.pl3  42  ARG42       0.1354
     22  NH2       63.1750  121.9510  -64.0510 N.pl3  42  ARG42       0.1354
     23  N         55.9840  122.6390  -58.6330 N.3    48  VAL48      -0.1245
     24  CA        56.2870  122.4320  -57.2550 C.3    48  VAL48       0.1561
     25  C         57.6930  122.7400  -56.8240 C.2    48  VAL48       0.2260
     26  O         58.6640  122.3000  -57.4680 O.2    48  VAL48      -0.2867
     27  CB        55.9860  121.0480  -56.9090 C.3    48  VAL48       0.0252
     28  CG1       56.1460  120.8530  -55.4650 C.3    48  VAL48       0.0019
     29  CG2       54.6150  120.7490  -57.3420 C.3    48  VAL48       0.0019
     30  N         56.3370  122.4450  -48.8120 N.3    61  ILE61      -0.1245
     31  CA        56.2140  122.3770  -50.2330 C.3    61  ILE61       0.1561
     32  C         55.4180  123.5690  -50.7390 C.2    61  ILE61       0.2260
     33  O         54.4140  123.9150  -50.1970 O.2    61  ILE61      -0.2867
     34  CB        55.5350  121.1280  -50.6180 C.3    61  ILE61       0.0252
     35  CG1       56.4240  119.9470  -50.3260 C.3    61  ILE61       0.0019
     36  CG2       55.2800  121.1740  -52.0860 C.3    61  ILE61       0.0019
     37  CD1       57.6640  119.9700  -51.1920 C.3    61  ILE61       0.0001
     38  N         47.3050  114.9970  -47.3170 N.3    90  VAL90      -0.1245
     39  CA        48.3730  115.9900  -47.3600 C.3    90  VAL90       0.1561
     40  C         47.7610  117.1120  -46.6890 C.2    90  VAL90       0.2260
     41  O         46.5620  117.2700  -46.7860 O.2    90  VAL90      -0.2867
     42  CB        48.8300  116.4230  -48.7420 C.3    90  VAL90       0.0252
     43  CG1       47.9030  117.4610  -49.3310 C.3    90  VAL90       0.0019
     44  CG2       50.2580  116.9230  -48.6410 C.3    90  VAL90       0.0019
     45  N         52.2420  123.4240  -48.7700 N.3   108  PHE108     -0.1227
     46  CA        51.9270  122.2140  -47.9840 C.3   108  PHE108      0.1736
     47  C         53.0070  121.8200  -47.0280 C.2   108  PHE108      0.2595
     48  O         54.1180  122.3210  -47.0590 O.2   108  PHE108     -0.2718
     49  CB        51.7010  121.0040  -48.8830 C.3   108  PHE108      0.0547
     50  CG        50.5630  121.1490  -49.8460 C.ar  108  PHE108     -0.0202
     51  CD1       49.2720  120.7430  -49.4840 C.ar  108  PHE108     -0.0042
     52  CD2       50.7650  121.7070  -51.0700 C.ar  108  PHE108     -0.0042
     53  CE1       48.2230  120.9060  -50.3050 C.ar  108  PHE108     -0.0003
     54  CE2       49.7490  121.8670  -51.8660 C.ar  108  PHE108     -0.0003
     55  CZ        48.4520  121.4620  -51.4890 C.ar  108  PHE108     -0.0000
     56  N         52.6550  120.8610  -46.1930 N.am  109  GLU109     -0.1965
     57  CA        53.5800  120.2330  -45.2450 C.3   109  GLU109      0.1733
     58  C         54.6290  119.5010  -46.1080 C.2   109  GLU109      0.2616
     59  O         54.3820  119.1110  -47.2180 O.2   109  GLU109     -0.2715
     60  CB        52.8310  119.1930  -44.3890 C.3   109  GLU109      0.0429
     61  CG        52.7140  117.8640  -45.1040 C.3   109  GLU109      0.1163
     62  CD        51.8330  116.8560  -44.4200 C.2   109  GLU109      0.3649
     63  OE1       52.2120  116.3150  -43.3550 O.co2 109  GLU109     -0.2457
     64  OE2       50.7410  116.6110  -44.9760 O.co2 109  GLU109     -0.2457
     65  N         55.8070  119.2800  -45.6230 N.am  110  TYR110     -0.1960
     66  CA        56.7520  118.5940  -46.4790 C.3   110  TYR110      0.1771
     67  C         56.7640  117.0450  -46.2990 C.2   110  TYR110      0.2619
     68  O         56.4840  116.5000  -45.1930 O.2   110  TYR110     -0.2715
     69  CB        58.1110  119.1420  -46.1510 C.3   110  TYR110      0.0574
     70  CG        59.1930  118.5850  -46.9090 C.ar  110  TYR110     -0.0198
     71  CD1       59.4820  119.0320  -48.2090 C.ar  110  TYR110     -0.0009
     72  CD2       59.9040  117.5510  -46.3780 C.ar  110  TYR110     -0.0009
     73  CE1       60.4920  118.4270  -48.9790 C.ar  110  TYR110      0.0417
     74  CE2       60.9170  116.9150  -47.1130 C.ar  110  TYR110      0.0417
     75  CZ        61.1990  117.3520  -48.4000 C.ar  110  TYR110      0.1957
     76  OH        62.1700  116.6550  -49.0410 O.3   110  TYR110     -0.2866
     77  N         56.9810  116.3000  -47.3880 N.am  111  VAL111     -0.1977
     78  CA        57.1350  114.8780  -47.1600 C.3   111  VAL111      0.1596
     79  C         58.4060  114.5440  -47.8170 C.2   111  VAL111      0.2287
     80  O         58.6840  115.0210  -48.9400 O.2   111  VAL111     -0.2864
     81  CB        56.0720  113.9500  -47.7900 C.3   111  VAL111      0.0276
     82  CG1       56.3010  112.4510  -47.3220 C.3   111  VAL111      0.0022
     83  CG2       54.6860  114.4230  -47.3950 C.3   111  VAL111      0.0022
     84  N         60.1420  112.1350  -49.9060 N.3   113  ASN113     -0.1240
     85  CA        59.5440  111.0640  -50.6990 C.3   113  ASN113      0.1653
     86  C         60.4940  110.4190  -51.7150 C.2   113  ASN113      0.2266
     87  O         61.5110  111.0340  -52.0980 O.2   113  ASN113     -0.2867
     88  CB        58.2800  111.6370  -51.3610 C.3   113  ASN113      0.1155
     89  CG        58.0700  111.1730  -52.7790 C.2   113  ASN113      0.2627
     90  OD1       58.6370  111.7700  -53.7090 O.2   113  ASN113     -0.2716
     91  ND2       57.2130  110.1170  -52.9650 N.am  113  ASN113     -0.0877
     92  N         60.4500  108.5820  -55.4320 N.3   115  ASP115     -0.1239
     93  CA        59.6170  108.3140  -56.5690 C.3   115  ASP115      0.1674
     94  C         59.2670  106.8470  -56.5340 C.2   115  ASP115      0.2266
     95  O         60.1400  106.0160  -56.2620 O.2   115  ASP115     -0.2867
     96  CB        60.3500  108.6660  -57.8080 C.3   115  ASP115      0.1410
     97  CG        59.5920  108.2780  -59.0270 C.2   115  ASP115      0.3668
     98  OD1       59.6350  108.9200  -60.0900 O.co2 115  ASP115     -0.2456
     99  OD2       58.9270  107.2730  -58.9460 O.co2 115  ASP115     -0.2456
    100  N         46.7960  107.5650  -58.0500 N.3   153  LYS153     -0.1245
    101  CA        47.8670  106.8860  -58.8200 C.3   153  LYS153      0.1561
    102  C         49.1390  107.0490  -57.9880 C.2   153  LYS153      0.2260
    103  O         49.1390  107.8300  -57.0640 O.2   153  LYS153     -0.2867
    104  CB        48.0220  107.5450  -60.2000 C.3   153  LYS153      0.0271
    105  CG        49.0780  108.6520  -60.2770 C.3   153  LYS153      0.0035
    106  CD        48.6680  109.9470  -61.0710 C.3   153  LYS153      0.0206
    107  CE        49.8830  110.8990  -61.3410 C.3   153  LYS153      0.1093
    108  NZ        49.6030  112.3270  -61.5980 N.3   153  LYS153     -0.1314
    109  N         52.2580  108.5730  -58.3490 N.3   155  HIS155     -0.1226
    110  CA        52.8100  109.8990  -58.2760 C.3   155  HIS155      0.1752
    111  C         52.0630  110.8660  -57.3220 C.2   155  HIS155      0.2596
    112  O         52.6350  111.8970  -56.8780 O.2   155  HIS155     -0.2718
    113  CB        52.9580  110.4830  -59.7000 C.3   155  HIS155      0.0759
    114  CG        52.9890  109.4450  -60.8020 C.ar  155  HIS155      0.0818
    115  ND1       53.9580  109.4500  -61.7980 N.ar  155  HIS155     -0.2268
    116  CD2       52.1360  108.4140  -61.1010 C.ar  155  HIS155      0.1154
    117  CE1       53.6890  108.4730  -62.6570 C.ar  155  HIS155      0.1986
    118  NE2       52.5890  107.8330  -62.2610 N.ar  155  HIS155     -0.2212
    119  N         50.8240  110.5590  -56.9390 N.am  156  ASN156     -0.1974
    120  CA        50.1340  111.4840  -56.0580 C.3   156  ASN156      0.1688
    121  C         50.0970  110.9350  -54.6350 C.2   156  ASN156      0.2292
    122  O         49.3440  111.3760  -53.7550 O.2   156  ASN156     -0.2864
    123  CB        48.7350  111.7970  -56.5460 C.3   156  ASN156      0.1181
    124  CG        48.6830  112.6150  -57.8410 C.2   156  ASN156      0.2629
    125  OD1       49.4620  113.5810  -58.1250 O.2   156  ASN156     -0.2716
    126  ND2       47.6800  112.2690  -58.6260 N.am  156  ASN156     -0.0877
    127  N         52.8340  110.3650  -51.6370 N.3   158  MET158     -0.1245
    128  CA        54.1550  110.5930  -51.0920 C.3   158  MET158      0.1570
    129  C         54.4750  109.5380  -50.0320 C.2   158  MET158      0.2261
    130  O         53.6990  109.3770  -49.1000 O.2   158  MET158     -0.2867
    131  CB        54.1990  111.9810  -50.3770 C.3   158  MET158      0.0387
    132  CG        54.2670  113.2030  -51.2090 C.3   158  MET158      0.0595
    133  SD        54.4880  112.6880  -52.8600 S.3   158  MET158     -0.1393
    134  CE        56.0310  113.2820  -53.1950 C.3   158  MET158      0.0692
    135  N         48.1190  113.2460  -52.1160 N.3   169  ILE169     -0.1231
    136  CA        48.2870  114.6390  -52.4910 C.3   169  ILE169      0.1692
    137  C         47.6020  115.0560  -53.7650 C.2   169  ILE169      0.2592
    138  O         46.9130  114.2670  -54.3880 O.2   169  ILE169     -0.2718
    139  CB        49.7850  114.8840  -52.6500 C.3   169  ILE169      0.0266
    140  CG1       50.1910  114.4170  -54.0300 C.3   169  ILE169      0.0019
    141  CG2       50.6040  114.2080  -51.4940 C.3   169  ILE169      0.0020
    142  CD1       51.6420  114.4570  -54.2870 C.3   169  ILE169      0.0001
    143  N         47.7910  116.3180  -54.1350 N.am  170  ASP170     -0.1974
    144  CA        47.1910  116.8500  -55.3880 C.3   170  ASP170      0.1709
    145  C         45.6660  116.6740  -55.2320 C.2   170  ASP170      0.2293
    146  O         45.1420  115.5860  -55.4500 O.2   170  ASP170     -0.2864
    147  CB        47.7000  115.9780  -56.6130 C.3   170  ASP170      0.1436
    148  CG        48.3110  116.7940  -57.8850 C.2   170  ASP170      0.3671
    149  OD1       47.5700  117.6580  -58.4340 O.co2 170  ASP170     -0.2456
    150  OD2       49.5070  116.4790  -58.3230 O.co2 170  ASP170     -0.2456
@<TRIPOS>BOND
     1    18    19    1
     2    18    17    1
     3    19    20    2
     4    15    14    2
     5    20    22    1
     6    20    21    1
     7    16    17    1
     8    16    13    1
     9    14    13    1
    10   117   118   ar
    11   117   115   ar
    12    13    12    1
    13   118   116   ar
    14   115   114   ar
    15   108   107    1
    16    12    10   am
    17   107   106    1
    18   116   114   ar
    19   106   105    1
    20   114   113    1
    21    10    11    2
    22    10     9    1
    23   105   104    1
    24   104   101    1
    25    98    97   ar
    26   113   110    1
    27     9     8    1
    28    97    99   ar
    29    97    96    1
    30     8     3   am
    31   101   100    1
    32   101   102    1
    33    23    24    1
    34   126   124   am
    35   149   148   ar
    36   109   110    1
    37     4     3    2
    38   150   148   ar
    39   110   111    1
    40     3     2    1
    41   125   124    2
    42   102   103    2
    43   148   147    1
    44   124   123    1
    45    96    93    1
    46     1     2    1
    47     2     5    1
    48    26    25    2
    49    29    27    1
    50   111   119   am
    51   111   112    2
    52    24    27    1
    53    24    25    1
    54   119   120    1
    55    27    28    1
    56   147   144    1
    57    93    94    1
    58    93    92    1
    59   123   120    1
    60    94    95    2
    61   120   121    1
    62     5     7    1
    63     5     6    1
    64   146   145    2
    65   144   145    1
    66   144   143    1
    67   121   122    2
    68   138   137    2
    69   142   140    1
    70   143   137   am
    71   140   139    1
    72   137   136    1
    73    90    89    2
    74   134   133    1
    75    91    89   am
    76   133   132    1
    77    89    88    1
    78   139   136    1
    79   139   141    1
    80   136   135    1
    81    87    86    2
    82    36    34    1
    83    54    55   ar
    84    54    52   ar
    85    86    85    1
    86   127   128    1
    87    55    53   ar
    88    88    85    1
    89   132   131    1
    90    37    35    1
    91   128   131    1
    92   128   129    1
    93    52    50   ar
    94    32    31    1
    95    32    33    2
    96    85    84    1
    97    34    35    1
    98    34    31    1
    99    53    51   ar
   100    31    30    1
   101   129   130    2
   102    50    51   ar
   103    50    49    1
   104    43    42    1
   105    76    75    1
   106    73    75   ar
   107    73    71   ar
   108    80    79    2
   109    49    46    1
   110    45    46    1
   111    42    44    1
   112    42    39    1
   113    75    74   ar
   114    71    70   ar
   115    46    47    1
   116    79    78    1
   117    81    83    1
   118    81    82    1
   119    81    78    1
   120    77    78    1
   121    77    67   am
   122    39    38    1
   123    39    40    1
   124    59    58    2
   125    74    72   ar
   126    48    47    2
   127    47    56   am
   128    70    72   ar
   129    70    69    1
   130    41    40    2
   131    66    67    1
   132    66    69    1
   133    66    65    1
   134    67    68    2
   135    56    57    1
   136    58    65   am
   137    58    57    1
   138    57    60    1
   139    61    62    1
   140    61    60    1
   141    64    62   ar
   142    62    63   ar
