@<TRIPOS>MOLECULE
tmp/1ds6A00.pdb
 130 125 0 0 0
SMALL
GASTEIGER

@<TRIPOS>ATOM
      1  N         35.5010    2.5350   15.1590 N.3    12  GLY12      -0.1210
      2  CA        36.1320    3.2290   16.2630 C.3    12  GLY12       0.1956
      3  C         36.3230    4.6680   15.8050 C.2    12  GLY12       0.2612
      4  O         36.4690    4.9310   14.6020 O.2    12  GLY12      -0.2717
      5  N         36.2740    5.5950   16.7550 N.am   13  ALA13      -0.1965
      6  CA        36.4320    7.0210   16.4950 C.3    13  ALA13       0.1728
      7  C         35.2380    7.7420   15.8310 C.2    13  ALA13       0.2616
      8  O         35.3440    8.9330   15.5230 O.2    13  ALA13      -0.2715
      9  CB        37.7230    7.2800   15.7120 C.3    13  ALA13       0.0334
     10  N         34.1240    7.0470   15.5840 N.am   14  VAL14      -0.1963
     11  CA        32.9730    7.7260   14.9830 C.3    14  VAL14       0.1727
     12  C         32.1650    8.5350   16.0060 C.2    14  VAL14       0.2617
     13  O         31.3370    9.3540   15.6240 O.2    14  VAL14      -0.2715
     14  CB        32.0160    6.7790   14.1890 C.3    14  VAL14       0.0290
     15  CG1       32.7710    6.0670   13.1110 C.3    14  VAL14       0.0023
     16  CG2       31.2820    5.8180   15.1060 C.3    14  VAL14       0.0023
     17  N         32.3990    8.2970   17.2950 N.am   15  GLY15      -0.1940
     18  CA        31.6950    9.0400   18.3210 C.3    15  GLY15       0.2014
     19  C         30.6320    8.2920   19.1040 C.2    15  GLY15       0.2639
     20  O         29.7690    8.9230   19.7040 O.2    15  GLY15      -0.2714
     21  N         30.7000    6.9600   19.1240 N.am   16  LYS16      -0.1963
     22  CA        29.7280    6.1380   19.8480 C.3    16  LYS16       0.1728
     23  C         29.6660    6.4740   21.3440 C.2    16  LYS16       0.2617
     24  O         28.5930    6.7460   21.8830 O.2    16  LYS16      -0.2715
     25  CB        30.0420    4.6460   19.6650 C.3    16  LYS16       0.0311
     26  CG        30.0040    4.1590   18.2140 C.3    16  LYS16       0.0038
     27  CD        30.2160    2.6450   18.1120 C.3    16  LYS16       0.0206
     28  CE        31.5920    2.2120   18.6290 C.3    16  LYS16       0.1093
     29  NZ        32.6990    2.7000   17.7600 N.3    16  LYS16      -0.1314
     30  N         30.8250    6.4910   21.9970 N.am   17  THR17      -0.1937
     31  CA        30.9040    6.7950   23.4280 C.3    17  THR17       0.2028
     32  C         30.4630    8.2210   23.7600 C.2    17  THR17       0.2642
     33  O         29.6430    8.4220   24.6490 O.2    17  THR17      -0.2714
     34  CB        32.3260    6.5370   23.9770 C.3    17  THR17       0.1808
     35  OG1       32.6800    5.1730   23.7230 O.3    17  THR17      -0.2208
     36  CG2       32.3800    6.7640   25.4780 C.3    17  THR17       0.0379
     37  N         30.9900    9.2050   23.0390 N.am   18  CYS18      -0.1967
     38  CA        30.6130   10.5980   23.2700 C.3    18  CYS18       0.1712
     39  C         29.1080   10.7940   23.0830 C.2    18  CYS18       0.2296
     40  O         28.4810   11.5590   23.8100 O.2    18  CYS18      -0.2864
     41  CB        31.3810   11.5280   22.3300 C.3    18  CYS18       0.0983
     42  SG        33.1500   11.6300   22.6900 S.3    18  CYS18      -0.0798
     43  N         29.0840   17.1200   26.9550 N.3    28  PHE28      -0.1241
     44  CA        30.0630   16.4640   26.0930 C.3    28  PHE28       0.1605
     45  C         31.3690   16.2870   26.8710 C.2    28  PHE28       0.2264
     46  O         31.8080   17.2090   27.5570 O.2    28  PHE28      -0.2867
     47  CB        30.3120   17.3010   24.8350 C.3    28  PHE28       0.0534
     48  CG        31.2580   16.6600   23.8540 C.ar   28  PHE28      -0.0203
     49  CD1       30.8330   15.6140   23.0360 C.ar   28  PHE28      -0.0042
     50  CD2       32.5760   17.1000   23.7460 C.ar   28  PHE28      -0.0042
     51  CE1       31.6990   15.0180   22.1270 C.ar   28  PHE28      -0.0003
     52  CE2       33.4540   16.5070   22.8370 C.ar   28  PHE28      -0.0003
     53  CZ        33.0110   15.4630   22.0250 C.ar   28  PHE28      -0.0000
     54  N         34.9360   15.7680   26.0360 N.3    30  GLY30      -0.1225
     55  CA        36.0000   16.7000   25.6830 C.3    30  GLY30       0.1811
     56  C         37.1780   16.7420   26.6430 C.2    30  GLY30       0.2280
     57  O         37.6520   17.8200   27.0140 O.2    30  GLY30      -0.2866
     58  N         37.9830   10.2580   27.5340 N.3    33  ILE33      -0.1231
     59  CA        36.8910    9.4970   26.9520 C.3    33  ILE33       0.1678
     60  C         37.2750    8.0280   27.0310 C.2    33  ILE33       0.2434
     61  O         38.2510    7.6030   26.4230 O.2    33  ILE33      -0.2733
     62  CB        36.6330    9.8850   25.4760 C.3    33  ILE33       0.0265
     63  CG1       36.3960   11.3930   25.3540 C.3    33  ILE33       0.0019
     64  CG2       35.4070    9.1390   24.9430 C.3    33  ILE33       0.0020
     65  CD1       36.2560   11.8670   23.9250 C.3    33  ILE33       0.0001
     66  N         36.5330    7.2370   27.8190 N.am   34  PRO34      -0.2718
     67  CA        36.8510    5.8150   27.9340 C.3    34  PRO34       0.1535
     68  C         36.5480    5.1520   26.6040 C.2    34  PRO34       0.2599
     69  O         35.7600    5.6800   25.8090 O.2    34  PRO34      -0.2715
     70  CB        35.8930    5.3440   29.0240 C.3    34  PRO34       0.0310
     71  CG        34.6870    6.2070   28.7890 C.3    34  PRO34       0.0237
     72  CD        35.3060    7.5670   28.5680 C.3    34  PRO34       0.0939
     73  N         37.1850    4.0160   26.3560 N.am   35  THR35      -0.1951
     74  CA        36.9880    3.2840   25.1180 C.3    35  THR35       0.1897
     75  C         35.5400    2.8500   25.0070 C.2    35  THR35       0.2313
     76  O         34.9800    2.8120   23.9240 O.2    35  THR35      -0.2863
     77  CB        37.9000    2.0530   25.0580 C.3    35  THR35       0.1794
     78  OG1       39.2640    2.4720   25.1820 O.3    35  THR35      -0.2208
     79  CG2       37.7150    1.3100   23.7430 C.3    35  THR35       0.0378
     80  N         27.0470   10.8740   12.6490 N.3   115  THR115     -0.1203
     81  CA        27.6150   11.6270   13.7540 C.3   115  THR115      0.1994
     82  C         28.5340   12.7720   13.3460 C.2   115  THR115      0.2617
     83  O         28.9210   12.8980   12.1780 O.2   115  THR115     -0.2717
     84  CB        28.3740   10.6850   14.6960 C.3   115  THR115      0.1784
     85  OG1       29.4170   10.0370   13.9640 O.3   115  THR115     -0.2211
     86  CG2       27.4340    9.6140   15.2560 C.3   115  THR115      0.0376
     87  N         28.8590   13.6160   14.3250 N.am  116  LYS116     -0.1979
     88  CA        29.7380   14.7700   14.1350 C.3   116  LYS116      0.1596
     89  C         29.2160   15.7430   13.0840 C.2   116  LYS116      0.2287
     90  O         29.9770   16.2350   12.2370 O.2   116  LYS116     -0.2864
     91  CB        31.1600   14.3100   13.7760 C.3   116  LYS116      0.0298
     92  CG        31.7690   13.3370   14.7750 C.3   116  LYS116      0.0038
     93  CD        33.2030   13.0160   14.4370 C.3   116  LYS116      0.0206
     94  CE        33.7740   11.9730   15.3740 C.3   116  LYS116      0.1093
     95  NZ        35.2210   11.7410   15.1030 N.3   116  LYS116     -0.1314
     96  N         28.3390   18.7460   13.4260 N.3   118  ASP118     -0.1225
     97  CA        28.9280   20.0740   13.6050 C.3   118  ASP118      0.1805
     98  C         30.2020   20.2690   12.7610 C.2   118  ASP118      0.2597
     99  O         30.6040   21.3950   12.4800 O.2   118  ASP118     -0.2718
    100  CB        29.2670   20.2760   15.0830 C.3   118  ASP118      0.1424
    101  CG        30.1970   19.1970   15.6170 C.2   118  ASP118      0.3668
    102  OD1       29.7410   18.0450   15.8010 O.co2 118  ASP118     -0.2456
    103  OD2       31.3910   19.4970   15.8300 O.co2 118  ASP118     -0.2456
    104  N         30.8380   19.1630   12.3770 N.am  119  LEU119     -0.1979
    105  CA        32.0590   19.2180   11.5850 C.3   119  LEU119      0.1596
    106  C         31.8280   19.1940   10.0810 C.2   119  LEU119      0.2287
    107  O         32.7660   19.4180    9.3220 O.2   119  LEU119     -0.2864
    108  CB        33.0010   18.0800   11.9640 C.3   119  LEU119      0.0297
    109  CG        33.5560   18.0630   13.3890 C.3   119  LEU119      0.0022
    110  CD1       34.5490   16.9190   13.5340 C.3   119  LEU119      0.0001
    111  CD2       34.2420   19.3810   13.6850 C.3   119  LEU119      0.0001
    112  N         24.9410   15.7140   16.5500 N.3   158  SER158     -0.1202
    113  CA        26.2300   16.1570   17.0500 C.3   158  SER158      0.2020
    114  C         26.1890   16.0200   18.5530 C.2   158  SER158      0.2619
    115  O         25.3480   16.6360   19.2040 O.2   158  SER158     -0.2717
    116  CB        26.4940   17.6170   16.7050 C.3   158  SER158      0.2103
    117  OG        27.6280   18.0860   17.4200 O.3   158  SER158     -0.2182
    118  N         27.0780   15.1950   19.0950 N.am  159  ALA159     -0.1965
    119  CA        27.1740   15.0030   20.5350 C.3   159  ALA159      0.1728
    120  C         27.8180   16.2420   21.1600 C.2   159  ALA159      0.2616
    121  O         27.5140   16.5890   22.3010 O.2   159  ALA159     -0.2715
    122  CB        28.0070   13.7640   20.8490 C.3   159  ALA159      0.0334
    123  N         28.6780   16.9180   20.3880 N.am  160  LEU160     -0.1977
    124  CA        29.3850   18.1210   20.8370 C.3   160  LEU160      0.1596
    125  C         28.4770   19.3360   21.1060 C.2   160  LEU160      0.2287
    126  O         28.5990   19.9950   22.1400 O.2   160  LEU160     -0.2864
    127  CB        30.5050   18.4830   19.8440 C.3   160  LEU160      0.0297
    128  CG        31.3520   19.7360   20.1260 C.3   160  LEU160      0.0022
    129  CD1       32.7600   19.5490   19.6250 C.3   160  LEU160      0.0001
    130  CD2       30.7410   20.9530   19.4660 C.3   160  LEU160      0.0001
@<TRIPOS>BOND
     1   107   106    2
     2   106   105    1
     3   105   108    1
     4   105   104    1
     5   108   109    1
     6    83    82    2
     7    90    89    2
     8   104    98   am
     9    99    98    2
    10    80    81    1
    11    98    97    1
    12    89    88    1
    13    15    14    1
    14    82    81    1
    15    82    87   am
    16   109   110    1
    17   109   111    1
    18    96    97    1
    19    97   100    1
    20    81    84    1
    21    91    88    1
    22    91    92    1
    23    85    84    1
    24    88    87    1
    25    14    11    1
    26    14    16    1
    27    93    92    1
    28    93    94    1
    29     4     3    2
    30    84    86    1
    31    11    10    1
    32    11    12    1
    33   100   101    1
    34    95    94    1
    35     1     2    1
    36     8     7    2
    37    10     7   am
    38   101   102   ar
    39   101   103   ar
    40    13    12    2
    41     9     6    1
    42     3     2    1
    43     3     5   am
    44     7     6    1
    45    12    17   am
    46     6     5    1
    47   112   113    1
    48   116   113    1
    49   116   117    1
    50   113   114    1
    51    17    18    1
    52    29    28    1
    53    27    26    1
    54    27    28    1
    55    26    25    1
    56    18    19    1
    57   114   118   am
    58   114   115    2
    59   118   119    1
    60    19    21   am
    61    19    20    2
    62    21    22    1
    63   130   128    1
    64   129   128    1
    65    25    22    1
    66   127   128    1
    67   127   124    1
    68    22    23    1
    69   123   124    1
    70   123   120   am
    71   119   122    1
    72   119   120    1
    73   124   125    1
    74   125   126    2
    75   120   121    2
    76    23    24    2
    77    23    30   am
    78    30    31    1
    79    53    51   ar
    80    53    52   ar
    81    51    49   ar
    82    41    42    1
    83    41    38    1
    84    52    50   ar
    85    49    48   ar
    86    37    38    1
    87    37    32   am
    88    39    38    1
    89    39    40    2
    90    31    32    1
    91    31    34    1
    92    35    34    1
    93    79    77    1
    94    50    48   ar
    95    32    33    2
    96    48    47    1
    97    76    75    2
    98    65    63    1
    99    34    36    1
   100    47    44    1
   101    64    62    1
   102    75    74    1
   103    77    74    1
   104    77    78    1
   105    74    73    1
   106    63    62    1
   107    62    59    1
   108    55    54    1
   109    55    56    1
   110    69    68    2
   111    44    45    1
   112    44    43    1
   113    73    68   am
   114    61    60    2
   115    68    67    1
   116    56    57    2
   117    45    46    2
   118    59    60    1
   119    59    58    1
   120    60    66   am
   121    66    67    1
   122    66    72    1
   123    67    70    1
   124    72    71    1
   125    71    70    1
