@<TRIPOS>MOLECULE
tmp/1ds8D06.pdb
 126 118 0 0 0
SMALL
GASTEIGER

@<TRIPOS>ATOM
      1  N         25.9290   42.6100   31.6070 N.3   182  THR182     -0.1218
      2  CA        27.3360   42.3280   31.3910 C.3   182  THR182      0.1862
      3  C         27.5550   40.8440   31.1050 C.2   182  THR182      0.2287
      4  O         28.4140   40.4780   30.2930 O.2   182  THR182     -0.2866
      5  CB        28.1480   42.7460   32.6230 C.3   182  THR182      0.1770
      6  OG1       27.8950   44.1250   32.8980 O.3   182  THR182     -0.2211
      7  CG2       29.6500   42.5280   32.3930 C.3   182  THR182      0.0375
      8  N         26.6440   40.0640   27.6680 N.3   185  LEU185     -0.1231
      9  CA        27.6900   40.6500   26.8430 C.3   185  LEU185      0.1693
     10  C         28.8960   39.6940   26.7850 C.2   185  LEU185      0.2591
     11  O         29.3920   39.3880   25.6990 O.2   185  LEU185     -0.2718
     12  CB        28.0930   42.0100   27.4140 C.3   185  LEU185      0.0284
     13  CG        29.4650   42.6150   27.0760 C.3   185  LEU185      0.0019
     14  CD1       29.7100   42.6410   25.5770 C.3   185  LEU185      0.0001
     15  CD2       29.5150   44.0300   27.6460 C.3   185  LEU185      0.0001
     16  N         29.3470   39.2070   27.9420 N.am  186  ALA186     -0.1980
     17  CA        30.4880   38.2910   27.9840 C.3   186  ALA186      0.1597
     18  C         30.1800   36.9230   27.3600 C.2   186  ALA186      0.2287
     19  O         31.0480   36.3170   26.7210 O.2   186  ALA186     -0.2864
     20  CB        30.9620   38.1170   29.4120 C.3   186  ALA186      0.0319
     21  N         30.5230   37.4210   23.6980 N.3   189  LEU189     -0.1231
     22  CA        31.9350   37.6010   23.4090 C.3   189  LEU189      0.1693
     23  C         32.6630   36.2570   23.4960 C.2   189  LEU189      0.2592
     24  O         33.4120   35.8950   22.5870 O.2   189  LEU189     -0.2718
     25  CB        32.5310   38.6030   24.4000 C.3   189  LEU189      0.0284
     26  CG        32.8770   40.0290   23.9770 C.3   189  LEU189      0.0019
     27  CD1       32.2660   40.4190   22.6400 C.3   189  LEU189      0.0001
     28  CD2       32.4400   40.9440   25.0730 C.3   189  LEU189      0.0001
     29  N         32.4300   35.5070   24.5730 N.am  190  HIS190     -0.1976
     30  CA        33.0940   34.2150   24.7260 C.3   190  HIS190      0.1656
     31  C         32.7210   33.2630   23.6020 C.2   190  HIS190      0.2291
     32  O         33.5880   32.6430   23.0030 O.2   190  HIS190     -0.2864
     33  CB        32.7610   33.5700   26.0780 C.3   190  HIS190      0.0771
     34  CG        33.4190   32.2340   26.2830 C.ar  190  HIS190      0.0820
     35  ND1       34.7800   32.0680   26.1300 N.ar  190  HIS190     -0.2267
     36  CD2       32.8550   31.0400   26.5930 C.ar  190  HIS190      0.1154
     37  CE1       35.0090   30.7870   26.3440 C.ar  190  HIS190      0.1986
     38  NE2       33.8780   30.1230   26.6270 N.ar  190  HIS190     -0.2212
     39  N         34.4270   34.4670   20.3390 N.3   193  LEU193     -0.1245
     40  CA        35.8770   34.3240   20.3170 C.3   193  LEU193      0.1561
     41  C         36.3130   32.8870   20.0510 C.2   193  LEU193      0.2260
     42  O         37.1330   32.6360   19.1730 O.2   193  LEU193     -0.2867
     43  CB        36.4960   34.8280   21.6360 C.3   193  LEU193      0.0270
     44  CG        38.0360   34.9650   21.6830 C.3   193  LEU193      0.0019
     45  CD1       38.5230   35.7960   20.4870 C.3   193  LEU193      0.0001
     46  CD2       38.4760   35.6100   23.0010 C.3   193  LEU193      0.0001
     47  N         43.7400   35.7090   22.4460 N.3   213  ASP213     -0.1239
     48  CA        44.3120   36.7530   23.2930 C.3   213  ASP213      0.1674
     49  C         44.6940   37.9900   22.4880 C.2   213  ASP213      0.2266
     50  O         44.3890   39.1140   22.8900 O.2   213  ASP213     -0.2867
     51  CB        45.5710   36.2600   24.0110 C.3   213  ASP213      0.1410
     52  CG        45.2930   35.1470   25.0120 C.2   213  ASP213      0.3668
     53  OD1       44.2250   35.1580   25.6670 O.co2 213  ASP213     -0.2456
     54  OD2       46.1700   34.2650   25.1600 O.co2 213  ASP213     -0.2456
     55  N         41.5660   40.0650   21.3700 N.3   216  PHE216     -0.1241
     56  CA        41.0000   40.9230   22.3980 C.3   216  PHE216      0.1605
     57  C         41.9550   41.9820   22.9000 C.2   216  PHE216      0.2264
     58  O         41.5430   43.0790   23.2900 O.2   216  PHE216     -0.2867
     59  CB        40.4770   40.0930   23.5730 C.3   216  PHE216      0.0534
     60  CG        38.9990   40.2520   23.7950 C.ar  216  PHE216     -0.0203
     61  CD1       38.0820   39.6310   22.9480 C.ar  216  PHE216     -0.0042
     62  CD2       38.5230   41.0870   24.8010 C.ar  216  PHE216     -0.0042
     63  CE1       36.7110   39.8440   23.0970 C.ar  216  PHE216     -0.0003
     64  CE2       37.1580   41.3100   24.9600 C.ar  216  PHE216     -0.0003
     65  CZ        36.2490   40.6890   24.1050 C.ar  216  PHE216     -0.0000
     66  N         40.6340   45.6740   22.8690 N.3   220  VAL220     -0.1245
     67  CA        40.4050   46.5020   24.0480 C.3   220  VAL220      0.1561
     68  C         41.6270   46.6910   24.9330 C.2   220  VAL220      0.2260
     69  O         41.5650   47.4010   25.9480 O.2   220  VAL220     -0.2867
     70  CB        39.2440   45.9200   24.9000 C.3   220  VAL220      0.0252
     71  CG1       37.9860   45.8060   24.0400 C.3   220  VAL220      0.0019
     72  CG2       39.6240   44.5450   25.4640 C.3   220  VAL220      0.0019
     73  N         43.3230   44.1410   26.4620 N.3   222  TYR222     -0.1227
     74  CA        43.3220   43.1740   27.5530 C.3   222  TYR222      0.1736
     75  C         42.6520   41.8800   27.1560 C.2   222  TYR222      0.2596
     76  O         41.7620   41.8600   26.3110 O.2   222  TYR222     -0.2718
     77  CB        42.6040   43.7420   28.7880 C.3   222  TYR222      0.0548
     78  CG        42.6080   42.8010   29.9760 C.ar  222  TYR222     -0.0200
     79  CD1       43.7950   42.5060   30.6520 C.ar  222  TYR222     -0.0009
     80  CD2       41.4360   42.1690   30.4030 C.ar  222  TYR222     -0.0009
     81  CE1       43.8210   41.6060   31.7200 C.ar  222  TYR222      0.0417
     82  CE2       41.4520   41.2600   31.4770 C.ar  222  TYR222      0.0417
     83  CZ        42.6510   40.9860   32.1280 C.ar  222  TYR222      0.1957
     84  OH        42.6810   40.0880   33.1800 O.3   222  TYR222     -0.2866
     85  N         43.1040   40.7990   27.7730 N.am  223  SER223     -0.1938
     86  CA        42.5530   39.4720   27.5590 C.3   223  SER223      0.2055
     87  C         42.5470   38.8370   28.9340 C.2   223  SER223      0.2643
     88  O         43.5860   38.7480   29.5960 O.2   223  SER223     -0.2714
     89  CB        43.4270   38.6430   26.6220 C.3   223  SER223      0.2130
     90  OG        42.9670   37.3000   26.5920 O.3   223  SER223     -0.2179
     91  N         41.3760   38.4040   29.3770 N.am  224  ILE224     -0.1963
     92  CA        41.2770   37.8060   30.6890 C.3   224  ILE224      0.1727
     93  C         41.8280   36.3810   30.6630 C.2   224  ILE224      0.2616
     94  O         42.3150   35.8870   31.6750 O.2   224  ILE224     -0.2715
     95  CB        39.8090   37.8570   31.1950 C.3   224  ILE224      0.0290
     96  CG1       39.7710   37.6300   32.7060 C.3   224  ILE224      0.0022
     97  CG2       38.9640   36.8340   30.4660 C.3   224  ILE224      0.0023
     98  CD1       38.4680   38.0170   33.3430 C.3   224  ILE224      0.0001
     99  N         41.7860   35.7360   29.4980 N.am  225  GLY225     -0.1955
    100  CA        42.3010   34.3800   29.3820 C.3   225  GLY225      0.1869
    101  C         41.2180   33.3120   29.4010 C.2   225  GLY225      0.2309
    102  O         40.1030   33.5520   29.8770 O.2   225  GLY225     -0.2863
    103  N         37.8360   33.7590   31.6790 N.3   229  ILE229     -0.1245
    104  CA        36.5450   33.9890   31.0580 C.3   229  ILE229      0.1561
    105  C         35.4590   33.1080   31.6630 C.2   229  ILE229      0.2260
    106  O         34.3490   33.5640   31.9070 O.2   229  ILE229     -0.2867
    107  CB        36.6030   33.7880   29.5060 C.3   229  ILE229      0.0252
    108  CG1       35.2650   34.1880   28.8850 C.3   229  ILE229      0.0019
    109  CG2       36.9160   32.3430   29.1520 C.3   229  ILE229      0.0019
    110  CD1       34.8840   35.6330   29.1480 C.3   229  ILE229      0.0001
    111  N         34.8100   34.3540   35.0530 N.3   232  LEU232     -0.1245
    112  CA        34.0210   35.5780   34.9170 C.3   232  LEU232      0.1561
    113  C         32.5550   35.2960   34.6420 C.2   232  LEU232      0.2260
    114  O         31.6750   35.8840   35.2730 O.2   232  LEU232     -0.2867
    115  CB        34.5790   36.4380   33.7870 C.3   232  LEU232      0.0270
    116  CG        33.8380   37.7590   33.5500 C.3   232  LEU232      0.0019
    117  CD1       33.8800   38.6080   34.8200 C.3   232  LEU232      0.0001
    118  CD2       34.4850   38.4960   32.3700 C.3   232  LEU232      0.0001
    119  N         29.6120   36.5890   37.0280 N.3   236  LEU236     -0.1245
    120  CA        28.5970   37.5490   36.5960 C.3   236  LEU236      0.1561
    121  C         27.1940   36.9910   36.7960 C.2   236  LEU236      0.2260
    122  O         26.3070   37.6930   37.2950 O.2   236  LEU236     -0.2867
    123  CB        28.8030   37.9320   35.1220 C.3   236  LEU236      0.0270
    124  CG        30.1000   38.6940   34.8080 C.3   236  LEU236      0.0019
    125  CD1       30.2340   38.9140   33.3030 C.3   236  LEU236      0.0001
    126  CD2       30.1050   40.0310   35.5470 C.3   236  LEU236      0.0001
@<TRIPOS>BOND
     1    42    41    2
     2    41    40    1
     3    40    39    1
     4    40    43    1
     5    45    44    1
     6    55    56    1
     7    43    44    1
     8    44    46    1
     9    56    57    1
    10    56    59    1
    11    47    48    1
    12    49    50    2
    13    49    48    1
    14    24    23    2
    15    27    26    1
    16    66    67    1
    17    57    58    2
    18    61    63   ar
    19    61    60   ar
    20    32    31    2
    21    63    65   ar
    22    48    51    1
    23    22    23    1
    24    22    21    1
    25    22    25    1
    26    23    29   am
    27    59    60    1
    28    31    30    1
    29    60    62   ar
    30    26    25    1
    31    26    28    1
    32    51    52    1
    33    71    70    1
    34    67    70    1
    35    67    68    1
    36    65    64   ar
    37    29    30    1
    38    30    33    1
    39    62    64   ar
    40    70    72    1
    41    68    69    2
    42    52    54   ar
    43    52    53   ar
    44    14    13    1
    45    11    10    2
    46    33    34    1
    47    35    34   ar
    48    35    37   ar
    49    34    36   ar
    50    76    75    2
    51    37    38   ar
    52    73    74    1
    53    90    89    1
    54    36    38   ar
    55    89    86    1
    56    19    18    2
    57    10     9    1
    58    10    16   am
    59     9    12    1
    60     9     8    1
    61    13    12    1
    62    13    15    1
    63    75    74    1
    64    75    85   am
    65    18    17    1
    66    74    77    1
    67    86    85    1
    68    86    87    1
    69    16    17    1
    70    17    20    1
    71    77    78    1
    72   108   110    1
    73   108   107    1
    74    87    91   am
    75    87    88    2
    76   109   107    1
    77    91    92    1
    78   100   101    1
    79   100    99    1
    80   101   102    2
    81    99    93   am
    82   107   104    1
    83    78    80   ar
    84    78    79   ar
    85     4     3    2
    86    80    82   ar
    87    97    95    1
    88    79    81   ar
    89    93    92    1
    90    93    94    2
    91    92    95    1
    92   104   105    1
    93   104   103    1
    94     3     2    1
    95    95    96    1
    96     2     1    1
    97     2     5    1
    98    82    83   ar
    99   105   106    2
   100    81    83   ar
   101    83    84    1
   102   118   116    1
   103     7     5    1
   104     5     6    1
   105    96    98    1
   106   125   124    1
   107   116   115    1
   108   116   117    1
   109   115   112    1
   110   113   112    1
   111   113   114    2
   112   124   123    1
   113   124   126    1
   114   112   111    1
   115   123   120    1
   116   120   121    1
   117   120   119    1
   118   121   122    2
