@<TRIPOS>MOLECULE
tmp/1dsyA00.pdb
 89 88 0 0 0
SMALL
GASTEIGER

@<TRIPOS>ATOM
      1  N         16.5280   34.3790    8.1550 N.3    32  ASP32      -0.1225
      2  CA        17.4740   33.2850    8.2870 C.3    32  ASP32       0.1790
      3  C         18.8550   33.6160    7.7670 C.2    32  ASP32       0.2440
      4  O         19.0250   34.5150    6.9420 O.2    32  ASP32      -0.2733
      5  CB        16.9540   32.0550    7.5600 C.3    32  ASP32       0.1423
      6  CG        15.6940   31.5400    8.1650 C.2    32  ASP32       0.3668
      7  OD1       15.6280   31.5120    9.4050 O.co2  32  ASP32      -0.2456
      8  OD2       14.7730   31.1660    7.4190 O.co2  32  ASP32      -0.2456
      9  N         19.8690   32.8910    8.2550 N.am   33  PRO33      -0.2718
     10  CA        21.2460   33.1230    7.8180 C.3    33  PRO33       0.1535
     11  C         21.4300   33.0600    6.2920 C.2    33  PRO33       0.2598
     12  O         22.2980   33.7450    5.7440 O.2    33  PRO33      -0.2715
     13  CB        22.0210   32.0250    8.5420 C.3    33  PRO33       0.0310
     14  CG        21.2640   31.8800    9.8360 C.3    33  PRO33       0.0237
     15  CD        19.8180   31.9490    9.3940 C.3    33  PRO33       0.0939
     16  N         20.6210   32.2630    5.6010 N.am   34  ASN34      -0.1973
     17  CA        20.7670   32.1470    4.1500 C.3    34  ASN34       0.1688
     18  C         20.0300   33.2260    3.3760 C.2    34  ASN34       0.2292
     19  O         19.8480   33.1130    2.1660 O.2    34  ASN34      -0.2864
     20  CB        20.3150   30.7660    3.6600 C.3    34  ASN34       0.1181
     21  CG        18.8350   30.5280    3.8570 C.2    34  ASN34       0.2629
     22  OD1       18.1310   31.3480    4.4450 O.2    34  ASN34      -0.2716
     23  ND2       18.3580   29.3790    3.3890 N.am   34  ASN34      -0.0877
     24  N         11.2030   30.7610    6.3640 N.3    38  ASP38      -0.1239
     25  CA        10.2080   29.7130    6.1750 C.3    38  ASP38       0.1674
     26  C          8.9030   30.1540    6.8070 C.2    38  ASP38       0.2266
     27  O          8.5400   29.6990    7.8910 O.2    38  ASP38      -0.2867
     28  CB        10.7190   28.4430    6.8300 C.3    38  ASP38       0.1410
     29  CG        12.1340   28.1490    6.4360 C.2    38  ASP38       0.3668
     30  OD1       12.3440   27.6900    5.2980 O.co2  38  ASP38      -0.2456
     31  OD2       13.0380   28.4100    7.2470 O.co2  38  ASP38      -0.2456
     32  N          9.0140   26.5070    3.0840 N.3    61  ARG61      -0.1245
     33  CA        10.4370   26.7150    3.2820 C.3    61  ARG61       0.1563
     34  C         11.1700   27.4800    2.1880 C.2    61  ARG61       0.2260
     35  O         10.7730   27.4860    1.0230 O.2    61  ARG61      -0.2867
     36  CB        11.1210   25.3640    3.5220 C.3    61  ARG61       0.0307
     37  CG        10.4750   24.5640    4.6470 C.3    61  ARG61       0.0489
     38  CD        11.3810   23.4750    5.2090 C.3    61  ARG61       0.2205
     39  NE        12.3650   23.9980    6.1580 N.pl3  61  ARG61      -0.0865
     40  CZ        13.5020   24.5990    5.8190 C.cat  61  ARG61       0.5346
     41  NH1       13.8200   24.7590    4.5400 N.pl3  61  ARG61       0.1354
     42  NH2       14.3270   25.0450    6.7630 N.pl3  61  ARG61       0.1354
     43  N          9.5620   29.7950   10.6340 N.3    92  TRP92      -0.1227
     44  CA         9.8680   28.5380   11.2990 C.3    92  TRP92       0.1737
     45  C         11.3790   28.2960   11.4050 C.2    92  TRP92       0.2595
     46  O         12.0930   28.3070   10.4030 O.2    92  TRP92      -0.2718
     47  CB         9.2140   27.3840   10.5300 C.3    92  TRP92       0.0564
     48  CG         9.2870   26.0470   11.2270 C.ar   92  TRP92       0.0003
     49  CD1        8.4260   25.5590   12.1830 C.ar   92  TRP92       0.0946
     50  CD2       10.2840   25.0410   11.0420 C.ar   92  TRP92       0.0152
     51  NE1        8.8340   24.3140   12.5990 N.ar   92  TRP92      -0.2442
     52  CE2        9.9850   23.9660   11.9100 C.ar   92  TRP92       0.0810
     53  CE3       11.4250   24.9320   10.2180 C.ar   92  TRP92       0.0012
     54  CZ2       10.7540   22.8080   11.9900 C.ar   92  TRP92       0.0191
     55  CZ3       12.1980   23.7860   10.2900 C.ar   92  TRP92       0.0001
     56  CH2       11.8590   22.7380   11.1720 C.ar   92  TRP92       0.0015
     57  N         11.8620   28.1110   12.6300 N.am   93  ASP93      -0.1960
     58  CA        13.2750   27.8240   12.8680 C.3    93  ASP93       0.1840
     59  C         13.2980   26.5150   13.6490 C.2    93  ASP93       0.2622
     60  O         12.4680   26.2980   14.5350 O.2    93  ASP93      -0.2715
     61  CB        13.9550   28.9300   13.6870 C.3    93  ASP93       0.1450
     62  CG        14.0870   30.2370   12.9220 C.2    93  ASP93       0.3671
     63  OD1       14.1490   30.2050   11.6790 O.co2  93  ASP93      -0.2456
     64  OD2       14.1470   31.3060   13.5680 O.co2  93  ASP93      -0.2456
     65  N         14.2350   25.6380   13.3130 N.am   94  ARG94      -0.1963
     66  CA        14.3370   24.3440   13.9780 C.3    94  ARG94       0.1729
     67  C         15.1710   24.3270   15.2420 C.2    94  ARG94       0.2617
     68  O         14.8280   23.6320   16.1990 O.2    94  ARG94      -0.2715
     69  CB        14.8960   23.2940   13.0100 C.3    94  ARG94       0.0348
     70  CG        15.4930   22.0790   13.7020 C.3    94  ARG94       0.0492
     71  CD        16.0370   21.0690   12.7120 C.3    94  ARG94       0.2205
     72  NE        15.0740   20.0100   12.4340 N.pl3  94  ARG94      -0.0865
     73  CZ        14.5930   19.7420   11.2260 C.cat  94  ARG94       0.5346
     74  NH1       14.9930   20.4650   10.1830 N.pl3  94  ARG94       0.1354
     75  NH2       13.7200   18.7680   11.0480 N.pl3  94  ARG94       0.1354
     76  N         16.2660   25.0770   15.2520 N.am   95  THR95      -0.1937
     77  CA        17.1540   25.0960   16.4120 C.3    95  THR95       0.2028
     78  C         17.0110   26.3140   17.3160 C.2    95  THR95       0.2642
     79  O         17.7860   26.4920   18.2520 O.2    95  THR95      -0.2714
     80  CB        18.6150   24.9800   15.9740 C.3    95  THR95       0.1808
     81  OG1       18.9630   26.1130   15.1770 O.3    95  THR95      -0.2208
     82  CG2       18.8160   23.7270   15.1540 C.3    95  THR95       0.0379
     83  N         16.0160   27.1480   17.0350 N.am   96  THR96      -0.1950
     84  CA        15.7580   28.3380   17.8340 C.3    96  THR96       0.1897
     85  C         14.2980   28.7170   17.6980 C.2    96  THR96       0.2313
     86  O         13.5920   28.1710   16.8520 O.2    96  THR96      -0.2863
     87  CB        16.6080   29.5300   17.3750 C.3    96  THR96       0.1794
     88  OG1       16.4480   29.7210   15.9630 O.3    96  THR96      -0.2208
     89  CG2       18.0710   29.2960   17.7010 C.3    96  THR96       0.0378
@<TRIPOS>BOND
     1    35    34    2
     2    19    18    2
     3    34    33    1
     4    32    33    1
     5    33    36    1
     6    18    17    1
     7    23    21   am
     8    36    37    1
     9    20    21    1
    10    20    17    1
    11    21    22    2
    12    17    16    1
    13    41    40    1
    14    37    38    1
    15    38    39    1
    16    30    29   ar
    17    16    11   am
    18    12    11    2
    19    40    39    2
    20    40    42    1
    21    25    24    1
    22    25    26    1
    23    25    28    1
    24    11    10    1
    25    29    28    1
    26    29    31   ar
    27    26    27    2
    28     4     3    2
    29     8     6   ar
    30     5     6    1
    31     5     2    1
    32     3     9   am
    33     3     2    1
    34    10     9    1
    35    10    13    1
    36     1     2    1
    37     6     7   ar
    38     9    15    1
    39    13    14    1
    40    15    14    1
    41    74    73    1
    42    53    55   ar
    43    53    50   ar
    44    55    56   ar
    45    46    45    2
    46    47    48    1
    47    47    44    1
    48    43    44    1
    49    50    48   ar
    50    50    52   ar
    51    75    73    1
    52    56    54   ar
    53    73    72    2
    54    48    49   ar
    55    44    45    1
    56    45    57   am
    57    63    62   ar
    58    52    54   ar
    59    52    51   ar
    60    49    51   ar
    61    72    71    1
    62    57    58    1
    63    71    70    1
    64    58    59    1
    65    58    61    1
    66    62    64   ar
    67    62    61    1
    68    69    70    1
    69    69    66    1
    70    65    59   am
    71    65    66    1
    72    59    60    2
    73    66    67    1
    74    82    80    1
    75    81    80    1
    76    67    76   am
    77    67    68    2
    78    76    77    1
    79    88    87    1
    80    80    77    1
    81    77    78    1
    82    86    85    2
    83    83    78   am
    84    83    84    1
    85    78    79    2
    86    87    89    1
    87    87    84    1
    88    85    84    1
