@<TRIPOS>MOLECULE
tmp/1dtdA00.pdb
 121 112 0 0 0
SMALL
GASTEIGER

@<TRIPOS>ATOM
      1  N         48.3730   40.8960   -3.8620 N.3    62  HIS62      -0.1241
      2  CA        48.9940   42.1790   -3.5590 C.3    62  HIS62       0.1621
      3  C         50.5030   42.0720   -3.6960 C.2    62  HIS62       0.2264
      4  O         51.1620   41.2790   -3.0350 O.2    62  HIS62      -0.2867
      5  CB        48.6030   42.6730   -2.1680 C.3    62  HIS62       0.0745
      6  CG        47.1660   43.1040   -2.2520 C.ar   62  HIS62       0.0817
      7  ND1       46.2720   42.8360   -1.2680 N.ar   62  HIS62      -0.2268
      8  CD2       46.4530   43.7660   -3.1900 C.ar   62  HIS62       0.1154
      9  CE1       45.0550   43.3050   -1.5560 C.ar   62  HIS62       0.1986
     10  NE2       45.1690   43.8680   -2.7080 N.ar   62  HIS62      -0.2212
     11  N         53.4700   41.8430   -0.8770 N.3    65  GLU65      -0.1245
     12  CA        53.5240   40.8050    0.1570 C.3    65  GLU65       0.1567
     13  C         54.3320   39.6010   -0.2860 C.2    65  GLU65       0.2260
     14  O         53.8150   38.4870   -0.3400 O.2    65  GLU65      -0.2867
     15  CB        52.0970   40.3420    0.4520 C.3    65  GLU65       0.0388
     16  CG        51.1950   41.5700    0.3970 C.3    65  GLU65       0.1160
     17  CD        49.8770   41.2050    1.0210 C.2    65  GLU65       0.3649
     18  OE1       49.3280   40.1310    0.6920 O.co2  65  GLU65      -0.2457
     19  OE2       49.4560   42.0690    1.8180 O.co2  65  GLU65      -0.2457
     20  N         51.1700   47.9610   -4.2860 N.3   120  ARG120     -0.1245
     21  CA        50.1680   46.9530   -3.9130 C.3   120  ARG120      0.1563
     22  C         49.2790   46.5040   -5.0710 C.2   120  ARG120      0.2260
     23  O         48.9050   45.3330   -5.1860 O.2   120  ARG120     -0.2867
     24  CB        49.2760   47.5430   -2.8270 C.3   120  ARG120      0.0307
     25  CG        47.9360   46.8750   -2.5510 C.3   120  ARG120      0.0489
     26  CD        47.2000   47.7060   -1.4960 C.3   120  ARG120      0.2205
     27  NE        45.8300   47.3140   -1.1960 N.pl3 120  ARG120     -0.0865
     28  CZ        45.4720   46.3880   -0.2990 C.cat 120  ARG120      0.5346
     29  NH1       44.1960   46.1040   -0.0780 N.pl3 120  ARG120      0.1354
     30  NH2       46.4150   45.7580    0.3890 N.pl3 120  ARG120      0.1354
     31  N         42.0140   43.1280   -4.7560 N.3   138  ASN138     -0.1225
     32  CA        41.1700   42.4860   -3.7250 C.3   138  ASN138      0.1785
     33  C         40.0400   43.3980   -3.2680 C.2   138  ASN138      0.2597
     34  O         39.4530   43.2130   -2.2020 O.2   138  ASN138     -0.2718
     35  CB        41.9930   41.9210   -2.5780 C.3   138  ASN138      0.1169
     36  CG        41.2100   40.8560   -1.8150 C.2   138  ASN138      0.2627
     37  OD1       40.5320   40.0370   -2.4310 O.2   138  ASN138     -0.2716
     38  ND2       41.3240   40.8760   -0.4970 N.am  138  ASN138     -0.0877
     39  N         39.6550   44.3750   -4.1030 N.am  139  ARG139     -0.1979
     40  CA        38.4290   45.1580   -3.9260 C.3   139  ARG139      0.1597
     41  C         37.6360   45.1370   -5.2480 C.2   139  ARG139      0.2287
     42  O         36.6570   45.8700   -5.4240 O.2   139  ARG139     -0.2864
     43  CB        38.6540   46.6040   -3.5090 C.3   139  ARG139      0.0334
     44  CG        39.3630   46.8410   -2.1810 C.3   139  ARG139      0.0492
     45  CD        38.5240   46.3880   -0.9750 C.3   139  ARG139      0.2205
     46  NE        39.2140   46.7860    0.2650 N.pl3 139  ARG139     -0.0865
     47  CZ        40.2050   46.0650    0.7880 C.cat 139  ARG139      0.5346
     48  NH1       40.5530   44.9340    0.1540 N.pl3 139  ARG139      0.1354
     49  NH2       40.8240   46.4190    1.8990 N.pl3 139  ARG139      0.1354
     50  N         47.6870   36.3360    1.9510 N.3   190  HIS190     -0.1241
     51  CA        48.1300   37.7120    2.0810 C.3   190  HIS190      0.1621
     52  C         49.1590   37.7980    3.2070 C.2   190  HIS190      0.2264
     53  O         49.4210   36.8500    3.9750 O.2   190  HIS190     -0.2867
     54  CB        46.9840   38.6610    2.4460 C.3   190  HIS190      0.0745
     55  CG        45.8930   38.7360    1.4240 C.ar  190  HIS190      0.0817
     56  ND1       45.6680   39.8710    0.6980 N.ar  190  HIS190     -0.2268
     57  CD2       44.9560   37.8800    0.9500 C.ar  190  HIS190      0.1154
     58  CE1       44.7040   39.7820   -0.1790 C.ar  190  HIS190      0.1986
     59  NE2       44.2800   38.5680   -0.0270 N.ar  190  HIS190     -0.2212
     60  N         41.3660   33.9170    8.5670 N.3   197  MET197     -0.1245
     61  CA        40.0220   34.4660    8.4610 C.3   197  MET197      0.1570
     62  C         39.0570   33.7600    7.5430 C.2   197  MET197      0.2261
     63  O         39.4540   33.0650    6.6050 O.2   197  MET197     -0.2867
     64  CB        40.2110   35.9250    7.9760 C.3   197  MET197      0.0387
     65  CG        41.0370   36.7470    8.9610 C.3   197  MET197      0.0595
     66  SD        41.3370   38.4350    8.4370 S.3   197  MET197     -0.1393
     67  CE        42.3290   38.2060    6.9870 C.3   197  MET197      0.0692
     68  N         36.6140   38.3940    8.5300 N.3   237  ILE237     -0.1245
     69  CA        37.4360   39.5150    8.0940 C.3   237  ILE237      0.1561
     70  C         37.0210   40.8300    8.7350 C.2   237  ILE237      0.2260
     71  O         37.8310   41.5710    9.2840 O.2   237  ILE237     -0.2867
     72  CB        37.3850   39.6660    6.5540 C.3   237  ILE237      0.0252
     73  CG1       38.0690   38.4350    5.9210 C.3   237  ILE237      0.0019
     74  CG2       38.1120   40.9140    6.0550 C.3   237  ILE237      0.0019
     75  CD1       37.8650   38.3630    4.4160 C.3   237  ILE237      0.0001
     76  N         40.1200   42.2860   11.1490 N.3   241  ILE241     -0.1231
     77  CA        41.0650   43.1970   10.4910 C.3   241  ILE241      0.1692
     78  C         40.3320   44.4940   10.2110 C.2   241  ILE241      0.2592
     79  O         40.6710   45.5210   10.8090 O.2   241  ILE241     -0.2718
     80  CB        41.7940   42.5460    9.3210 C.3   241  ILE241      0.0266
     81  CG1       42.9230   43.4330    8.7570 C.3   241  ILE241      0.0019
     82  CG2       40.8740   42.1330    8.1850 C.3   241  ILE241      0.0020
     83  CD1       44.1670   43.4250    9.6180 C.3   241  ILE241      0.0001
     84  N         39.3750   44.5210    9.2980 N.am  242  TYR242     -0.1976
     85  CA        38.6380   45.7190    8.9390 C.3   242  TYR242      0.1639
     86  C         37.5880   45.4100    7.8810 C.2   242  TYR242      0.2290
     87  O         37.6150   44.3180    7.2970 O.2   242  TYR242     -0.2864
     88  CB        39.5600   46.8370    8.4340 C.3   242  TYR242      0.0560
     89  CG        40.6250   46.4760    7.4260 C.ar  242  TYR242     -0.0198
     90  CD1       40.3570   45.8010    6.2430 C.ar  242  TYR242     -0.0009
     91  CD2       41.9450   46.8200    7.6860 C.ar  242  TYR242     -0.0009
     92  CE1       41.3660   45.4970    5.3550 C.ar  242  TYR242      0.0417
     93  CE2       42.9720   46.5260    6.8040 C.ar  242  TYR242      0.0417
     94  CZ        42.6650   45.8550    5.6340 C.ar  242  TYR242      0.1957
     95  OH        43.6790   45.5570    4.7440 O.3   242  TYR242     -0.2866
     96  N         36.0900   45.4110    4.2910 N.3   244  ALA244     -0.1245
     97  CA        36.7990   45.4370    3.0100 C.3   244  ALA244      0.1562
     98  C         35.9050   44.9170    1.9010 C.2   244  ALA244      0.2260
     99  O         35.7620   43.6830    1.7560 O.2   244  ALA244     -0.2867
    100  CB        38.0350   44.5340    3.1220 C.3   244  ALA244      0.0290
    101  N         35.9850   41.7860   -1.8300 N.3   247  GLY247     -0.1225
    102  CA        37.0710   40.8120   -1.6570 C.3   247  GLY247      0.1811
    103  C         36.7550   39.4540   -2.2810 C.2   247  GLY247      0.2280
    104  O         35.6150   39.0140   -2.3860 O.2   247  GLY247     -0.2866
    105  N         37.2740   36.1280   -1.1270 N.3   249  ILE249     -0.1245
    106  CA        36.6140   35.0140   -0.4390 C.3   249  ILE249      0.1561
    107  C         35.1640   35.3370   -0.1120 C.2   249  ILE249      0.2260
    108  O         34.3890   34.3780    0.0540 O.2   249  ILE249     -0.2867
    109  CB        37.3430   34.4860    0.7960 C.3   249  ILE249      0.0252
    110  CG1       37.4580   35.5510    1.8850 C.3   249  ILE249      0.0019
    111  CG2       38.7080   33.9290    0.4160 C.3   249  ILE249      0.0019
    112  CD1       37.7110   34.9370    3.2450 C.3   249  ILE249      0.0001
    113  N         46.6350   35.8080    6.7110 N.3   264  GLU264     -0.1245
    114  CA        47.6200   36.8830    6.7810 C.3   264  GLU264      0.1567
    115  C         48.8610   36.2580    7.4250 C.2   264  GLU264      0.2260
    116  O         48.7920   35.9150    8.6150 O.2   264  GLU264     -0.2867
    117  CB        47.1430   38.0840    7.5960 C.3   264  GLU264      0.0388
    118  CG        45.9020   38.7240    6.9970 C.3   264  GLU264      0.1160
    119  CD        46.1850   39.6630    5.8320 C.2   264  GLU264      0.3649
    120  OE1       47.3720   39.8940    5.5650 O.co2 264  GLU264     -0.2457
    121  OE2       45.2290   40.1510    5.1970 O.co2 264  GLU264     -0.2457
@<TRIPOS>BOND
     1    42    41    2
     2    41    40    1
     3    23    22    2
     4    22    21    1
     5    31    32    1
     6    20    21    1
     7    39    40    1
     8    39    33   am
     9    40    43    1
    10    21    24    1
    11     1     2    1
    12    32    33    1
    13    32    35    1
    14     3     2    1
    15     3     4    2
    16     2     5    1
    17    43    44    1
    18    33    34    2
    19     8    10   ar
    20     8     6   ar
    21    24    25    1
    22    10     9   ar
    23    35    36    1
    24    25    26    1
    25    37    36    2
    26   104   103    2
    27   103   102    1
    28     6     5    1
    29     6     7   ar
    30    44    45    1
    31   101   102    1
    32    36    38   am
    33     9     7   ar
    34    26    27    1
    35    27    28    2
    36   105   106    1
    37    45    46    1
    38    11    12    1
    39   106   107    1
    40   106   109    1
    41    14    13    2
    42    28    29    1
    43    28    30    1
    44    13    12    1
    45    58    59   ar
    46    58    56   ar
    47   107   108    2
    48    59    57   ar
    49    48    47    1
    50    12    15    1
    51    46    47    2
    52    16    15    1
    53    16    17    1
    54   111   109    1
    55    18    17   ar
    56    56    55   ar
    57    47    49    1
    58   109   110    1
    59    57    55   ar
    60    17    19   ar
    61    55    54    1
    62    99    98    2
    63   110   112    1
    64    98    97    1
    65    50    51    1
    66    51    54    1
    67    51    52    1
    68    97   100    1
    69    97    96    1
    70    52    53    2
    71    75    73    1
    72    95    94    1
    73   121   119   ar
    74    92    94   ar
    75    92    90   ar
    76   120   119   ar
    77    94    93   ar
    78   119   118    1
    79    73    72    1
    80    74    72    1
    81    90    89   ar
    82    72    69    1
    83    63    62    2
    84   113   114    1
    85   114   115    1
    86   114   117    1
    87    93    91   ar
    88    67    66    1
    89   118   117    1
    90    87    86    2
    91   115   116    2
    92    89    91   ar
    93    89    88    1
    94    62    61    1
    95    86    85    1
    96    64    61    1
    97    64    65    1
    98    69    68    1
    99    69    70    1
   100    82    80    1
   101    88    85    1
   102    66    65    1
   103    61    60    1
   104    70    71    2
   105    81    80    1
   106    81    83    1
   107    85    84    1
   108    84    78   am
   109    80    77    1
   110    78    77    1
   111    78    79    2
   112    77    76    1
