@<TRIPOS>MOLECULE
tmp/1dthB00.pdb
 184 181 0 0 0
SMALL
GASTEIGER

@<TRIPOS>ATOM
      1  N         -3.0580   23.3190   56.9850 N.3   105  GLU105     -0.1231
      2  CA        -3.2630   21.9890   56.4120 C.3   105  GLU105      0.1699
      3  C         -2.5010   21.7900   55.1030 C.2   105  GLU105      0.2592
      4  O         -3.0430   21.3020   54.1060 O.2   105  GLU105     -0.2718
      5  CB        -4.7640   21.7030   56.2520 C.3   105  GLU105      0.0402
      6  CG        -5.5980   22.8840   55.7190 C.3   105  GLU105      0.1161
      7  CD        -6.8420   23.1740   56.5640 C.2   105  GLU105      0.3649
      8  OE1       -7.6660   22.2490   56.7570 O.co2 105  GLU105     -0.2457
      9  OE2       -6.9900   24.3330   57.0310 O.co2 105  GLU105     -0.2457
     10  N         -1.2200   22.1440   55.1520 N.am  106  GLU106     -0.1966
     11  CA        -0.3000   22.0510   54.0250 C.3   106  GLU106      0.1733
     12  C         -0.8000   22.7920   52.7880 C.2   106  GLU106      0.2617
     13  O         -0.6950   22.3120   51.6600 O.2   106  GLU106     -0.2715
     14  CB         0.0640   20.5910   53.7350 C.3   106  GLU106      0.0429
     15  CG         0.7280   19.9080   54.9500 C.3   106  GLU106      0.1163
     16  CD         1.3870   18.5660   54.6260 C.2   106  GLU106      0.3649
     17  OE1        2.4590   18.5650   53.9700 O.co2 106  GLU106     -0.2457
     18  OE2        0.8450   17.5190   55.0520 O.co2 106  GLU106     -0.2457
     19  N         -1.3170   23.9930   53.0310 N.am  107  THR107     -0.1937
     20  CA        -1.8320   24.8670   51.9860 C.3   107  THR107      0.2028
     21  C         -0.6420   25.6740   51.4970 C.2   107  THR107      0.2642
     22  O          0.1170   26.2110   52.3040 O.2   107  THR107     -0.2714
     23  CB        -2.8520   25.8660   52.5630 C.3   107  THR107      0.1808
     24  OG1       -3.8420   25.1750   53.3360 O.3   107  THR107     -0.2208
     25  CG2       -3.5220   26.6270   51.4430 C.3   107  THR107      0.0379
     26  N         -0.4350   25.7410   50.1910 N.am  108  LEU108     -0.1963
     27  CA         0.6950   26.5130   49.7020 C.3   108  LEU108      0.1728
     28  C          0.2720   27.7940   49.0180 C.2   108  LEU108      0.2617
     29  O          1.1000   28.5190   48.4940 O.2   108  LEU108     -0.2715
     30  CB         1.6040   25.6640   48.8170 C.3   108  LEU108      0.0311
     31  CG         2.5340   24.7090   49.5860 C.3   108  LEU108      0.0022
     32  CD1        1.7690   23.6250   50.3330 C.3   108  LEU108      0.0001
     33  CD2        3.5010   24.0710   48.6310 C.3   108  LEU108      0.0001
     34  N         -1.0050   28.1260   49.1680 N.am  109  GLY109     -0.1940
     35  CA        -1.5570   29.3230   48.5610 C.3   109  GLY109      0.2014
     36  C         -3.0720   29.3320   48.6220 C.2   109  GLY109      0.2639
     37  O         -3.6910   28.2680   48.6760 O.2   109  GLY109     -0.2714
     38  N         -3.6630   30.5260   48.6260 N.am  110  LEU110     -0.1963
     39  CA        -5.1240   30.6990   48.7010 C.3   110  LEU110      0.1728
     40  C         -5.6040   32.0600   48.1560 C.2   110  LEU110      0.2616
     41  O         -5.0350   33.1010   48.4710 O.2   110  LEU110     -0.2715
     42  CB        -5.5900   30.5500   50.1600 C.3   110  LEU110      0.0311
     43  CG        -7.0880   30.5930   50.4790 C.3   110  LEU110      0.0022
     44  CD1       -7.6470   29.1840   50.4350 C.3   110  LEU110      0.0001
     45  CD2       -7.3120   31.1940   51.8560 C.3   110  LEU110      0.0001
     46  N         -6.6830   32.0440   47.3800 N.am  111  ALA111     -0.1977
     47  CA        -7.2510   33.2510   46.7870 C.3   111  ALA111      0.1597
     48  C         -8.7460   33.0410   46.5090 C.2   111  ALA111      0.2287
     49  O         -9.1560   31.9290   46.1900 O.2   111  ALA111     -0.2864
     50  CB        -6.5130   33.5760   45.4820 C.3   111  ALA111      0.0319
     51  N          7.4750   28.6360   49.3510 N.3   129  HIS129     -0.1241
     52  CA         7.7170   27.2100   49.5420 C.3   129  HIS129      0.1621
     53  C          8.7230   26.5050   48.6380 C.2   129  HIS129      0.2264
     54  O          8.9160   25.2980   48.7640 O.2   129  HIS129     -0.2867
     55  CB         6.3880   26.4820   49.3730 C.3   129  HIS129      0.0745
     56  CG         5.8730   26.4870   47.9580 C.ar  129  HIS129      0.0817
     57  ND1        6.1390   25.4710   47.0620 N.ar  129  HIS129     -0.2268
     58  CD2        5.1020   27.3780   47.3000 C.ar  129  HIS129      0.1154
     59  CE1        5.5500   25.7400   45.9110 C.ar  129  HIS129      0.1986
     60  NE2        4.9140   26.8900   46.0280 N.ar  129  HIS129     -0.2212
     61  N          4.0950   29.3720   39.0080 N.3   138  VAL138     -0.1231
     62  CA         2.8790   28.5900   38.7680 C.3   138  VAL138      0.1692
     63  C          1.9380   28.7850   39.9650 C.2   138  VAL138      0.2592
     64  O          0.7220   28.9120   39.7980 O.2   138  VAL138     -0.2718
     65  CB         3.1800   27.0570   38.5350 C.3   138  VAL138      0.0266
     66  CG1        3.6090   26.3810   39.8160 C.3   138  VAL138      0.0020
     67  CG2        1.9520   26.3520   37.9720 C.3   138  VAL138      0.0020
     68  N          2.5220   28.8920   41.1580 N.am  139  THR139     -0.1953
     69  CA         1.7820   29.0990   42.4000 C.3   139  THR139      0.1897
     70  C          1.0310   30.4350   42.3890 C.2   139  THR139      0.2313
     71  O         -0.1760   30.4810   42.6200 O.2   139  THR139     -0.2863
     72  CB         2.7440   29.0510   43.6130 C.3   139  THR139      0.1794
     73  OG1        3.3660   27.7660   43.6690 O.3   139  THR139     -0.2208
     74  CG2        1.9980   29.2820   44.9240 C.3   139  THR139      0.0378
     75  N         -1.4540   30.5440   39.7010 N.3   142  HIS142     -0.1226
     76  CA        -2.6020   29.7440   40.0620 C.3   142  HIS142      0.1752
     77  C         -3.5910   30.6320   40.8170 C.2   142  HIS142      0.2595
     78  O         -4.7600   30.7290   40.4470 O.2   142  HIS142     -0.2718
     79  CB        -2.1630   28.5830   40.9470 C.3   142  HIS142      0.0759
     80  CG        -3.2780   27.6820   41.3530 C.ar  142  HIS142      0.0818
     81  ND1       -3.5970   26.5390   40.6570 N.ar  142  HIS142     -0.2268
     82  CD2       -4.1590   27.7570   42.3780 C.ar  142  HIS142      0.1154
     83  CE1       -4.6630   25.9430   41.2850 C.ar  142  HIS142      0.1986
     84  NE2       -4.9920   26.7000   42.3330 N.ar  142  HIS142     -0.2212
     85  N         -3.0950   31.3140   41.8480 N.am  143  GLU143     -0.1979
     86  CA        -3.9160   32.1960   42.6640 C.3   143  GLU143      0.1602
     87  C         -4.4980   33.3830   41.8860 C.2   143  GLU143      0.2287
     88  O         -5.6580   33.7440   42.0870 O.2   143  GLU143     -0.2864
     89  CB        -3.1660   32.6270   43.9370 C.3   143  GLU143      0.0415
     90  CG        -2.6770   31.4510   44.8490 C.3   143  GLU143      0.1163
     91  CD        -3.7540   30.4050   45.2350 C.2   143  GLU143      0.3649
     92  OE1       -4.9380   30.7510   45.3850 O.co2 143  GLU143     -0.2457
     93  OE2       -3.4180   29.2150   45.3960 O.co2 143  GLU143     -0.2457
     94  N         -7.5100   32.1000   39.9800 N.3   146  HIS146     -0.1241
     95  CA        -8.7500   31.9700   40.7430 C.3   146  HIS146      0.1621
     96  C         -9.4500   33.3340   40.7870 C.2   146  HIS146      0.2264
     97  O        -10.6720   33.4060   40.6890 O.2   146  HIS146     -0.2867
     98  CB        -8.4550   31.4930   42.1700 C.3   146  HIS146      0.0745
     99  CG        -8.2950   30.0070   42.3100 C.ar  146  HIS146      0.0817
    100  ND1       -9.2280   29.1050   41.8530 N.ar  146  HIS146     -0.2268
    101  CD2       -7.3360   29.2680   42.9150 C.ar  146  HIS146      0.1154
    102  CE1       -8.8260   27.8420   42.2140 C.ar  146  HIS146      0.1986
    103  NE2       -7.6570   27.9400   42.8750 N.ar  146  HIS146     -0.2212
    104  N        -10.7720   24.7180   39.5010 N.3   152  HIS152     -0.1241
    105  CA        -9.7260   23.7380   39.2700 C.3   152  HIS152      0.1621
    106  C         -9.9670   22.8070   38.1030 C.2   152  HIS152      0.2264
    107  O        -11.0460   22.7770   37.5170 O.2   152  HIS152     -0.2867
    108  CB        -9.4870   22.9060   40.5170 C.3   152  HIS152      0.0745
    109  CG        -8.8180   23.6580   41.6180 C.ar  152  HIS152      0.0817
    110  ND1       -9.1720   23.4950   42.9390 N.ar  152  HIS152     -0.2268
    111  CD2       -7.8340   24.5900   41.5960 C.ar  152  HIS152      0.1154
    112  CE1       -8.4250   24.3310   43.7250 C.ar  152  HIS152      0.1986
    113  NE2       -7.6200   24.9860   42.8670 N.ar  152  HIS152     -0.2212
    114  N          1.8710   20.6260   32.4070 N.3   163  LEU163     -0.1231
    115  CA         0.9320   20.4220   33.5080 C.3   163  LEU163      0.1693
    116  C         -0.0320   21.6120   33.5700 C.2   163  LEU163      0.2592
    117  O          0.3880   22.7670   33.4370 O.2   163  LEU163     -0.2718
    118  CB         1.6910   20.2810   34.8370 C.3   163  LEU163      0.0284
    119  CG         2.6790   19.1120   34.9010 C.3   163  LEU163      0.0019
    120  CD1        3.5550   19.1790   36.1370 C.3   163  LEU163      0.0001
    121  CD2        1.9120   17.8230   34.8760 C.3   163  LEU163      0.0001
    122  N         -1.3230   21.3280   33.7010 N.am  164  CYS164     -0.1956
    123  CA        -2.3240   22.3880   33.7690 C.3   164  CYS164      0.1843
    124  C         -2.0550   23.1670   35.0370 C.2   164  CYS164      0.2625
    125  O         -1.9360   22.5780   36.1100 O.2   164  CYS164     -0.2714
    126  CB        -3.7350   21.8060   33.8390 C.3   164  CYS164      0.0997
    127  SG        -4.2210   20.7730   32.4190 S.3   164  CYS164     -0.0797
    128  N         -1.9870   24.4890   34.9160 N.am  165  ILE165     -0.1977
    129  CA        -1.7200   25.3590   36.0550 C.3   165  ILE165      0.1596
    130  C         -2.7860   25.3310   37.1500 C.2   165  ILE165      0.2287
    131  O         -2.4650   25.4360   38.3370 O.2   165  ILE165     -0.2864
    132  CB        -1.4560   26.7980   35.5730 C.3   165  ILE165      0.0276
    133  CG1       -0.1900   26.7990   34.7070 C.3   165  ILE165      0.0022
    134  CG2       -1.3400   27.7650   36.7670 C.3   165  ILE165      0.0022
    135  CD1        0.0860   28.0900   33.9920 C.3   165  ILE165      0.0001
    136  N         -4.4150   22.9100   38.4450 N.3   167  ARG167     -0.1231
    137  CA        -4.5540   21.6130   39.0860 C.3   167  ARG167      0.1679
    138  C         -4.7710   21.9290   40.5660 C.2   167  ARG167      0.2434
    139  O         -4.4570   23.0240   41.0200 O.2   167  ARG167     -0.2733
    140  CB        -3.2720   20.7970   38.9220 C.3   167  ARG167      0.0321
    141  CG        -3.2980   19.8670   37.7860 C.3   167  ARG167      0.0489
    142  CD        -2.2370   18.8390   37.9520 C.3   167  ARG167      0.2205
    143  NE        -1.8650   18.2430   36.6750 N.pl3 167  ARG167     -0.0865
    144  CZ        -1.1660   17.1250   36.5670 C.cat 167  ARG167      0.5346
    145  NH1       -0.7810   16.4790   37.6590 N.pl3 167  ARG167      0.1354
    146  NH2       -0.8720   16.6400   35.3740 N.pl3 167  ARG167      0.1354
    147  N         -5.3560   20.9880   41.3260 N.am  168  PRO168     -0.2718
    148  CA        -5.5660   21.2590   42.7520 C.3   168  PRO168      0.1535
    149  C         -4.2990   21.1410   43.5990 C.2   168  PRO168      0.2599
    150  O         -4.1720   21.8290   44.6040 O.2   168  PRO168     -0.2715
    151  CB        -6.6100   20.2060   43.1470 C.3   168  PRO168      0.0310
    152  CG        -7.2850   19.8970   41.8610 C.3   168  PRO168      0.0237
    153  CD        -6.1500   19.8330   40.9040 C.3   168  PRO168      0.0939
    154  N         -3.3690   20.2710   43.2070 N.am  169  GLY169     -0.1941
    155  CA        -2.1290   20.1030   43.9530 C.3   169  GLY169      0.2014
    156  C         -0.9170   20.3980   43.0810 C.2   169  GLY169      0.2639
    157  O         -1.0340   20.3880   41.8540 O.2   169  GLY169     -0.2714
    158  N          0.2410   20.6410   43.7000 N.am  170  LEU170     -0.1963
    159  CA         1.4650   20.9460   42.9570 C.3   170  LEU170      0.1728
    160  C          2.3890   19.7610   42.7590 C.2   170  LEU170      0.2616
    161  O          2.9060   19.1850   43.7170 O.2   170  LEU170     -0.2715
    162  CB         2.2500   22.1170   43.5850 C.3   170  LEU170      0.0311
    163  CG         3.4690   22.6540   42.8140 C.3   170  LEU170      0.0022
    164  CD1        3.1620   22.8020   41.3250 C.3   170  LEU170      0.0001
    165  CD2        3.9210   23.9830   43.3970 C.3   170  LEU170      0.0001
    166  N          2.5630   19.4030   41.4920 N.am  171  THR171     -0.1951
    167  CA         3.4330   18.3210   41.0830 C.3   171  THR171      0.1897
    168  C          4.6010   19.0200   40.3860 C.2   171  THR171      0.2313
    169  O          4.3990   20.0020   39.6720 O.2   171  THR171     -0.2863
    170  CB         2.7310   17.3850   40.0660 C.3   171  THR171      0.1794
    171  OG1        1.4690   16.9350   40.5910 O.3   171  THR171     -0.2208
    172  CG2        3.6260   16.1790   39.7580 C.3   171  THR171      0.0378
    173  N          4.5930   24.0010   32.2330 N.3   176  TYR176     -0.1241
    174  CA         3.2610   24.2450   32.8010 C.3   176  TYR176      0.1605
    175  C          2.4930   25.1580   31.8850 C.2   176  TYR176      0.2264
    176  O          3.0510   26.1090   31.3560 O.2   176  TYR176     -0.2867
    177  CB         3.3380   24.9210   34.1560 C.3   176  TYR176      0.0534
    178  CG         3.9660   24.1230   35.2780 C.ar  176  TYR176     -0.0201
    179  CD1        5.3290   24.1500   35.5180 C.ar  176  TYR176     -0.0009
    180  CD2        3.1980   23.3160   36.1180 C.ar  176  TYR176     -0.0009
    181  CE1        5.9150   23.4370   36.5730 C.ar  176  TYR176      0.0417
    182  CE2        3.7710   22.5850   37.1400 C.ar  176  TYR176      0.0417
    183  CZ         5.1250   22.6730   37.4040 C.ar  176  TYR176      0.1957
    184  OH         5.6120   21.9400   38.4390 O.3   176  TYR176     -0.2866
@<TRIPOS>BOND
     1   176   175    2
     2   175   174    1
     3   173   174    1
     4   114   115    1
     5   127   126    1
     6   174   177    1
     7   117   116    2
     8   115   116    1
     9   115   118    1
    10   116   122   am
    11   122   123    1
    12   123   126    1
    13   123   124    1
    14   135   133    1
    15   177   178    1
    16   133   132    1
    17   118   119    1
    18   121   119    1
    19   119   120    1
    20   128   124   am
    21   128   129    1
    22   124   125    2
    23   178   179   ar
    24   178   180   ar
    25   146   144    1
    26   179   181   ar
    27   132   129    1
    28   132   134    1
    29   129   130    1
    30   180   182   ar
    31   144   143    2
    32   144   145    1
    33   181   183   ar
    34   143   142    1
    35   182   183   ar
    36   130   131    2
    37   183   184    1
    38   107   106    2
    39   141   142    1
    40   141   140    1
    41    67    65    1
    42   106   105    1
    43   136   137    1
    44    65    62    1
    45    65    66    1
    46    62    61    1
    47    62    63    1
    48   140   137    1
    49   137   138    1
    50   105   104    1
    51   105   108    1
    52   169   168    2
    53    75    76    1
    54   172   170    1
    55    64    63    2
    56    63    68   am
    57    94    95    1
    58    76    77    1
    59    76    79    1
    60   170   171    1
    61   170   167    1
    62   168   167    1
    63    78    77    2
    64   108   109    1
    65   138   139    2
    66   138   147   am
    67    81    83   ar
    68    81    80   ar
    69    97    96    2
    70    95    96    1
    71    95    98    1
    72    77    85   am
    73   153   147    1
    74   153   152    1
    75    79    80    1
    76   167   166    1
    77    68    69    1
    78    83    84   ar
    79   164   163    1
    80   147   148    1
    81    80    82   ar
    82   166   160   am
    83   111   109   ar
    84   111   113   ar
    85   109   110   ar
    86    85    86    1
    87   100   102   ar
    88   100    99   ar
    89   157   156    2
    90   152   151    1
    91    87    88    2
    92    87    86    1
    93    98    99    1
    94   102   103   ar
    95    99   101   ar
    96    84    82   ar
    97    70    69    1
    98    70    71    2
    99    69    72    1
   100    86    89    1
   101   148   151    1
   102   148   149    1
   103   160   159    1
   104   160   161    2
   105   163   165    1
   106   163   162    1
   107   113   112   ar
   108   103   101   ar
   109   110   112   ar
   110   159   162    1
   111   159   158    1
   112   156   158   am
   113   156   155    1
   114   154   149   am
   115   154   155    1
   116   149   150    2
   117    72    73    1
   118    72    74    1
   119    89    90    1
   120    90    91    1
   121    91    92   ar
   122    91    93   ar
   123    50    47    1
   124    59    60   ar
   125    59    57   ar
   126    60    58   ar
   127    49    48    2
   128    48    47    1
   129    47    46    1
   130    57    56   ar
   131    58    56   ar
   132    46    40   am
   133    56    55    1
   134    40    41    2
   135    40    39    1
   136    29    28    2
   137    35    36    1
   138    35    34    1
   139    36    38   am
   140    36    37    2
   141    38    39    1
   142    33    31    1
   143    53    54    2
   144    53    52    1
   145    39    42    1
   146    30    31    1
   147    30    27    1
   148    28    34   am
   149    28    27    1
   150    51    52    1
   151    55    52    1
   152    31    32    1
   153    27    26    1
   154    42    43    1
   155    26    21   am
   156    44    43    1
   157    43    45    1
   158    25    23    1
   159    21    20    1
   160    21    22    2
   161    13    12    2
   162    20    23    1
   163    20    19    1
   164    23    24    1
   165    12    19   am
   166    12    11    1
   167    14    11    1
   168    14    15    1
   169    17    16   ar
   170    11    10    1
   171     4     3    2
   172    16    15    1
   173    16    18   ar
   174     3    10   am
   175     3     2    1
   176     6     5    1
   177     6     7    1
   178     5     2    1
   179     2     1    1
   180     7     8   ar
   181     7     9   ar
