@<TRIPOS>MOLECULE
tmp/1dtlA02.pdb
 101 94 0 0 0
SMALL
GASTEIGER

@<TRIPOS>ATOM
      1  N         -3.8010    6.2270    2.5480 N.3    41  MET41      -0.1245
      2  CA        -3.3810    7.2780    1.6260 C.3    41  MET41       0.1570
      3  C         -4.3350    8.4700    1.7060 C.2    41  MET41       0.2261
      4  O         -3.9080    9.6160    1.7800 O.2    41  MET41      -0.2867
      5  CB        -3.3870    6.7600    0.1930 C.3    41  MET41       0.0387
      6  CG        -2.3870    5.6450   -0.0710 C.3    41  MET41       0.0595
      7  SD        -0.7340    6.1630    0.2690 S.3    41  MET41      -0.1393
      8  CE        -0.4140    7.1160   -1.0800 C.3    41  MET41       0.0692
      9  N         -4.1770   10.5040    4.7670 N.3    44  LEU44      -0.1245
     10  CA        -2.9790   11.3470    4.7670 C.3    44  LEU44       0.1561
     11  C         -3.0610   12.4930    3.7550 C.2    44  LEU44       0.2260
     12  O         -2.0660   13.1660    3.5110 O.2    44  LEU44      -0.2867
     13  CB        -1.7160   10.5090    4.5110 C.3    44  LEU44       0.0270
     14  CG        -1.3840    9.4620    5.5800 C.3    44  LEU44       0.0019
     15  CD1       -0.1390    8.7690    5.1600 C.3    44  LEU44       0.0001
     16  CD2       -1.2700   10.0940    7.0180 C.3    44  LEU44       0.0001
     17  N         -3.8380   12.3260    0.3820 N.3    46  GLN46      -0.1231
     18  CA        -3.5470   12.0470   -1.0070 C.3    46  GLN46       0.1698
     19  C         -4.8050   11.5730   -1.7320 C.2    46  GLN46       0.2592
     20  O         -5.8390   11.3340   -1.1040 O.2    46  GLN46      -0.2718
     21  CB        -2.4840   10.9570   -1.0850 C.3    46  GLN46       0.0381
     22  CG        -1.1800   11.2830   -0.3330 C.3    46  GLN46       0.0905
     23  CD        -0.6100   12.6010   -0.7980 C.2    46  GLN46       0.2608
     24  OE1       -0.2050   12.7470   -1.9850 O.2    46  GLN46      -0.2717
     25  NE2       -0.6090   13.6040    0.1160 N.am   46  GLN46      -0.0878
     26  N         -4.7030   11.3930   -3.0470 N.am   47  ASN47      -0.1961
     27  CA        -5.8240   10.9180   -3.8540 C.3    47  ASN47       0.1804
     28  C         -5.2660    9.9910   -4.9410 C.2    47  ASN47       0.2463
     29  O         -5.2530   10.3310   -6.1130 O.2    47  ASN47      -0.2730
     30  CB        -6.5040   12.1310   -4.4370 C.3    47  ASN47       0.1195
     31  CG        -7.2640   12.9300   -3.3540 C.2    47  ASN47       0.2630
     32  OD1       -8.3540   12.5230   -2.9610 O.2    47  ASN47      -0.2716
     33  ND2       -6.6680   14.0220   -2.8430 N.am   47  ASN47      -0.0877
     34  N         -4.7710    8.8130   -4.5520 N.am   48  PRO48      -0.2727
     35  CA        -4.1940    7.8220   -5.4730 C.3    48  PRO48       0.1402
     36  C         -5.2350    7.2080   -6.3920 C.2    48  PRO48       0.2269
     37  O         -6.4300    7.1710   -6.0780 O.2    48  PRO48      -0.2865
     38  CB        -3.5560    6.7730   -4.5430 C.3    48  PRO48       0.0296
     39  CG        -4.5130    6.7720   -3.3320 C.3    48  PRO48       0.0237
     40  CD        -4.8480    8.2830   -3.1680 C.3    48  PRO48       0.0939
     41  N         -2.0010    3.2290   -9.2280 N.3    52  GLU52      -0.1245
     42  CA        -0.9730    3.5050   -8.2430 C.3    52  GLU52       0.1567
     43  C         -1.0690    2.5590   -7.0320 C.2    52  GLU52       0.2260
     44  O         -0.0580    2.0560   -6.5680 O.2    52  GLU52      -0.2867
     45  CB        -1.0340    4.9590   -7.7550 C.3    52  GLU52       0.0388
     46  CG        -0.9550    5.9260   -8.9260 C.3    52  GLU52       0.1160
     47  CD        -1.2020    7.3840   -8.5640 C.2    52  GLU52       0.3649
     48  OE1       -2.0680    7.6950   -7.7180 O.co2  52  GLU52      -0.2457
     49  OE2       -0.5180    8.2310   -9.1590 O.co2  52  GLU52      -0.2457
     50  N          1.6530   -0.4530   -5.7730 N.3    56  MET56      -0.1245
     51  CA         2.3180   -0.5540   -4.4750 C.3    56  MET56       0.1570
     52  C          2.1320   -1.9300   -3.7950 C.2    56  MET56       0.2261
     53  O          3.0780   -2.4570   -3.1830 O.2    56  MET56      -0.2867
     54  CB         1.8300    0.5500   -3.5370 C.3    56  MET56       0.0387
     55  CG         2.3870    1.9260   -3.8930 C.3    56  MET56       0.0595
     56  SD         1.5470    3.2930   -3.1110 S.3    56  MET56      -0.1393
     57  CE         2.0630    3.0990   -1.4770 C.3    56  MET56       0.0692
     58  N         10.6150    8.7140   -1.2450 N.3    87  GLU87      -0.1245
     59  CA         9.3600    8.3450   -0.6040 C.3    87  GLU87       0.1567
     60  C          9.3250    8.9060    0.7890 C.2    87  GLU87       0.2260
     61  O          8.2720    9.2640    1.2820 O.2    87  GLU87      -0.2867
     62  CB         9.1990    6.8360   -0.4710 C.3    87  GLU87       0.0388
     63  CG         9.1640    6.0420   -1.7580 C.3    87  GLU87       0.1160
     64  CD         9.0160    4.5360   -1.4830 C.2    87  GLU87       0.3649
     65  OE1        7.9180    4.1380   -0.9820 O.co2  87  GLU87      -0.2457
     66  OE2       10.0050    3.7950   -1.7670 O.co2  87  GLU87      -0.2457
     67  N          8.2910   12.6400    0.6280 N.3    90  ASP90      -0.1225
     68  CA         6.8510   12.7600    0.3790 C.3    90  ASP90       0.1805
     69  C          6.0460   12.4330    1.6490 C.2    90  ASP90       0.2597
     70  O          5.1220   13.1560    1.9840 O.2    90  ASP90      -0.2718
     71  CB         6.4070   11.7750   -0.7110 C.3    90  ASP90       0.1424
     72  CG         6.9230   12.1400   -2.0700 C.2    90  ASP90       0.3668
     73  OD1        6.9390   11.2310   -2.9240 O.co2  90  ASP90      -0.2456
     74  OD2        7.2930   13.3170   -2.2800 O.co2  90  ASP90      -0.2456
     75  N          6.3560   11.3150    2.2990 N.am   91  LEU91      -0.1979
     76  CA         5.6720   10.8970    3.5190 C.3    91  LEU91       0.1596
     77  C          5.7590   12.0220    4.5350 C.2    91  LEU91       0.2287
     78  O          4.7520   12.3800    5.1770 O.2    91  LEU91      -0.2864
     79  CB         6.3420    9.6470    4.0820 C.3    91  LEU91       0.0297
     80  CG         5.6730    9.0560    5.3220 C.3    91  LEU91       0.0022
     81  CD1        4.1160    8.8590    4.9820 C.3    91  LEU91       0.0001
     82  CD2        6.3230    7.6800    5.6730 C.3    91  LEU91       0.0001
     83  N          6.1370   15.2100    4.0530 N.3    93  ARG93      -0.1231
     84  CA         5.2760   16.2980    3.5950 C.3    93  ARG93       0.1694
     85  C          3.7770   15.9580    3.7800 C.2    93  ARG93       0.2591
     86  O          2.9560   16.8350    3.9510 O.2    93  ARG93      -0.2718
     87  CB         5.5970   16.6300    2.1290 C.3    93  ARG93       0.0321
     88  CG         7.0120   17.0960    1.9510 C.3    93  ARG93       0.0489
     89  CD         7.2890   17.6020    0.5140 C.3    93  ARG93       0.2205
     90  NE         8.7040   17.9190    0.3260 N.pl3  93  ARG93      -0.0865
     91  CZ         9.2520   18.2660   -0.8410 C.cat  93  ARG93       0.5346
     92  NH1       10.5460   18.5120   -0.9170 N.pl3  93  ARG93       0.1354
     93  NH2        8.5040   18.3920   -1.9340 N.pl3  93  ARG93       0.1354
     94  N          3.4180   14.6920    3.7250 N.am   94  MET94      -0.1979
     95  CA         2.0190   14.3070    3.9320 C.3    94  MET94       0.1605
     96  C          1.6020   14.6970    5.3530 C.2    94  MET94       0.2287
     97  O          0.4610   15.0710    5.5900 O.2    94  MET94      -0.2864
     98  CB         1.8480   12.8010    3.7250 C.3    94  MET94       0.0413
     99  CG         2.0190   12.3580    2.2600 C.3    94  MET94       0.0598
    100  SD         1.6780   10.6170    2.0820 S.3    94  MET94      -0.1393
    101  CE         2.7720   10.3040    0.7450 C.3    94  MET94       0.0692
@<TRIPOS>BOND
     1    41    42    1
     2    49    47   ar
     3    46    47    1
     4    46    45    1
     5    47    48   ar
     6    42    45    1
     7    42    43    1
     8    43    44    2
     9    36    37    2
    10    36    35    1
    11    29    28    2
    12    50    51    1
    13    35    34    1
    14    35    38    1
    15    28    34   am
    16    28    27    1
    17    34    40    1
    18    38    39    1
    19    51    52    1
    20    51    54    1
    21    30    27    1
    22    30    31    1
    23    55    54    1
    24    55    56    1
    25    27    26    1
    26    52    53    2
    27    31    32    2
    28    31    33   am
    29    39    40    1
    30    56    57    1
    31    26    19   am
    32    73    72   ar
    33    74    72   ar
    34    72    71    1
    35    24    23    2
    36    93    91    1
    37    66    64   ar
    38    63    64    1
    39    63    62    1
    40    19    20    2
    41    19    18    1
    42    64    65   ar
    43    58    59    1
    44    21    18    1
    45    21    22    1
    46     8     7    1
    47    18    17    1
    48    92    91    1
    49    91    90    2
    50    23    22    1
    51    23    25   am
    52    71    68    1
    53    59    62    1
    54    59    60    1
    55     6     5    1
    56     6     7    1
    57     5     2    1
    58    90    89    1
    59    68    67    1
    60    68    69    1
    61    89    88    1
    62   101   100    1
    63    60    61    2
    64     2     3    1
    65     2     1    1
    66    69    70    2
    67    69    75   am
    68     3     4    2
    69    88    87    1
    70   100    99    1
    71    87    84    1
    72    99    98    1
    73    75    76    1
    74    12    11    2
    75    76    79    1
    76    76    77    1
    77    84    85    1
    78    84    83    1
    79    94    85   am
    80    94    95    1
    81    98    95    1
    82    11    10    1
    83    85    86    2
    84    95    96    1
    85    79    80    1
    86    13    10    1
    87    13    14    1
    88    77    78    2
    89    10     9    1
    90    81    80    1
    91    15    14    1
    92    80    82    1
    93    96    97    2
    94    14    16    1
