@<TRIPOS>MOLECULE
tmp/1dtlA00.pdb
 189 175 0 0 0
SMALL
GASTEIGER

@<TRIPOS>ATOM
      1  N         -3.0600   -0.0560    9.1550 N.3    23  PHE23      -0.1241
      2  CA        -3.4500   -0.3150    7.7800 C.3    23  PHE23       0.1605
      3  C         -4.5800   -1.3700    7.6510 C.2    23  PHE23       0.2264
      4  O         -5.4270   -1.2950    6.7390 O.2    23  PHE23      -0.2867
      5  CB        -2.2420   -0.8040    6.9640 C.3    23  PHE23       0.0534
      6  CG        -1.2140    0.2630    6.6490 C.ar   23  PHE23      -0.0203
      7  CD1       -0.2840    0.6610    7.6110 C.ar   23  PHE23      -0.0042
      8  CD2       -1.1490    0.8250    5.3740 C.ar   23  PHE23      -0.0042
      9  CE1        0.6950    1.5930    7.3200 C.ar   23  PHE23      -0.0003
     10  CE2       -0.1670    1.7720    5.0540 C.ar   23  PHE23      -0.0003
     11  CZ         0.7550    2.1610    6.0140 C.ar   23  PHE23      -0.0000
     12  N         -3.2130   -6.2950    4.1460 N.3    32  ILE32      -0.1245
     13  CA        -3.4090   -5.0200    3.4740 C.3    32  ILE32       0.1561
     14  C         -3.7270   -5.2050    2.0060 C.2    32  ILE32       0.2260
     15  O         -2.9300   -5.7960    1.2930 O.2    32  ILE32      -0.2867
     16  CB        -2.1360   -4.1080    3.6090 C.3    32  ILE32       0.0252
     17  CG1       -1.7690   -3.9260    5.0710 C.3    32  ILE32       0.0019
     18  CG2       -2.3960   -2.6490    3.1110 C.3    32  ILE32       0.0019
     19  CD1       -0.3580   -3.1980    5.2030 C.3    32  ILE32       0.0001
     20  N         -4.8400    0.2840    1.6640 N.3    37  LEU37      -0.1245
     21  CA        -3.7640    1.1920    1.2670 C.3    37  LEU37       0.1561
     22  C         -4.3960    2.5150    0.8270 C.2    37  LEU37       0.2260
     23  O         -3.8640    3.5730    1.1720 O.2    37  LEU37      -0.2867
     24  CB        -2.9520    0.6050    0.1130 C.3    37  LEU37       0.0270
     25  CG        -1.6770    1.3710   -0.2130 C.3    37  LEU37       0.0019
     26  CD1       -0.8130    1.4710    1.0630 C.3    37  LEU37       0.0001
     27  CD2       -0.9160    0.6360   -1.3230 C.3    37  LEU37       0.0001
     28  N         -5.5980    4.5970    3.9750 N.3    40  VAL40      -0.1231
     29  CA        -4.5110    5.3130    4.6980 C.3    40  VAL40       0.1692
     30  C         -4.0340    6.5040    3.8290 C.2    40  VAL40       0.2591
     31  O         -3.8680    7.6470    4.3010 O.2    40  VAL40      -0.2718
     32  CB        -3.3260    4.3360    4.9680 C.3    40  VAL40       0.0266
     33  CG1       -2.0810    5.0700    5.5720 C.3    40  VAL40       0.0020
     34  CG2       -3.7810    3.3030    5.9450 C.3    40  VAL40       0.0020
     35  N         -3.8010    6.2270    2.5480 N.am   41  MET41      -0.1979
     36  CA        -3.3810    7.2780    1.6260 C.3    41  MET41       0.1605
     37  C         -4.3350    8.4700    1.7060 C.2    41  MET41       0.2287
     38  O         -3.9080    9.6160    1.7800 O.2    41  MET41      -0.2864
     39  CB        -3.3870    6.7600    0.1930 C.3    41  MET41       0.0413
     40  CG        -2.3870    5.6450   -0.0710 C.3    41  MET41       0.0598
     41  SD        -0.7340    6.1630    0.2690 S.3    41  MET41      -0.1393
     42  CE        -0.4140    7.1160   -1.0800 C.3    41  MET41       0.0692
     43  N         -4.1770   10.5040    4.7670 N.3    44  LEU44      -0.1245
     44  CA        -2.9790   11.3470    4.7670 C.3    44  LEU44       0.1561
     45  C         -3.0610   12.4930    3.7550 C.2    44  LEU44       0.2260
     46  O         -2.0660   13.1660    3.5110 O.2    44  LEU44      -0.2867
     47  CB        -1.7160   10.5090    4.5110 C.3    44  LEU44       0.0270
     48  CG        -1.3840    9.4620    5.5800 C.3    44  LEU44       0.0019
     49  CD1       -0.1390    8.7690    5.1600 C.3    44  LEU44       0.0001
     50  CD2       -1.2700   10.0940    7.0180 C.3    44  LEU44       0.0001
     51  N          1.6530   -0.4530   -5.7730 N.3    56  MET56      -0.1230
     52  CA         2.3180   -0.5540   -4.4750 C.3    56  MET56       0.1702
     53  C          2.1320   -1.9300   -3.7950 C.2    56  MET56       0.2592
     54  O          3.0780   -2.4570   -3.1830 O.2    56  MET56      -0.2718
     55  CB         1.8300    0.5500   -3.5370 C.3    56  MET56       0.0401
     56  CG         2.3870    1.9260   -3.8930 C.3    56  MET56       0.0596
     57  SD         1.5470    3.2930   -3.1110 S.3    56  MET56      -0.1393
     58  CE         2.0630    3.0990   -1.4770 C.3    56  MET56       0.0692
     59  N          0.9280   -2.4880   -3.8850 N.am   57  ILE57      -0.1980
     60  CA         0.6240   -3.7950   -3.3000 C.3    57  ILE57       0.1595
     61  C          1.4810   -4.8720   -3.9870 C.2    57  ILE57       0.2287
     62  O          2.0860   -5.6750   -3.3040 O.2    57  ILE57      -0.2864
     63  CB        -0.8410   -4.1780   -3.5060 C.3    57  ILE57       0.0276
     64  CG1       -1.7650   -3.2070   -2.7700 C.3    57  ILE57       0.0022
     65  CG2       -1.0570   -5.6320   -3.0670 C.3    57  ILE57       0.0022
     66  CD1       -1.5590   -3.2280   -1.2150 C.3    57  ILE57       0.0001
     67  N          4.3340   -4.5590   -5.5180 N.3    59  GLU59      -0.1231
     68  CA         5.7480   -4.3650   -5.2250 C.3    59  GLU59       0.1699
     69  C          6.2110   -5.1180   -3.9460 C.2    59  GLU59       0.2592
     70  O          7.3570   -5.5250   -3.8400 O.2    59  GLU59      -0.2718
     71  CB         6.0240   -2.8640   -5.0810 C.3    59  GLU59       0.0402
     72  CG         7.4750   -2.5280   -4.7830 C.3    59  GLU59       0.1161
     73  CD         8.4530   -3.0160   -5.8600 C.2    59  GLU59       0.3649
     74  OE1        8.0370   -3.1290   -7.0490 O.co2  59  GLU59      -0.2457
     75  OE2        9.6400   -3.2670   -5.5120 O.co2  59  GLU59      -0.2457
     76  N          5.3090   -5.3280   -2.9900 N.am   60  VAL60      -0.1980
     77  CA         5.6700   -5.9720   -1.7430 C.3    60  VAL60       0.1595
     78  C          4.9450   -7.3040   -1.5170 C.2    60  VAL60       0.2287
     79  O          5.2190   -7.9700   -0.5270 O.2    60  VAL60      -0.2864
     80  CB         5.3830   -5.0140   -0.5560 C.3    60  VAL60       0.0276
     81  CG1        6.0020   -3.7090   -0.7880 C.3    60  VAL60       0.0022
     82  CG2        3.9450   -4.8040   -0.3980 C.3    60  VAL60       0.0022
     83  N         -0.9440   -7.7620    1.3460 N.3    68  VAL68      -0.1245
     84  CA         0.3160   -7.7070    2.0780 C.3    68  VAL68       0.1561
     85  C          0.0690   -8.1080    3.5340 C.2    68  VAL68       0.2260
     86  O         -0.6480   -7.4120    4.2560 O.2    68  VAL68      -0.2867
     87  CB         0.8960   -6.2600    2.0230 C.3    68  VAL68       0.0252
     88  CG1        2.1340   -6.1210    2.8900 C.3    68  VAL68       0.0019
     89  CG2        1.2040   -5.9100    0.5710 C.3    68  VAL68       0.0019
     90  N          5.1930   -7.0680    5.1580 N.3    73  PHE73      -0.1241
     91  CA         5.2650   -5.6690    5.6020 C.3    73  PHE73       0.1605
     92  C          6.6500   -5.4590    6.2030 C.2    73  PHE73       0.2264
     93  O          7.3200   -4.4430    5.9270 O.2    73  PHE73      -0.2867
     94  CB         4.2110   -5.4010    6.6770 C.3    73  PHE73       0.0534
     95  CG         4.0790   -3.9280    7.0770 C.ar   73  PHE73      -0.0203
     96  CD1        3.3830   -3.0260    6.2750 C.ar   73  PHE73      -0.0042
     97  CD2        4.5800   -3.4920    8.2840 C.ar   73  PHE73      -0.0042
     98  CE1        3.1620   -1.6970    6.6550 C.ar   73  PHE73      -0.0003
     99  CE2        4.3870   -2.1530    8.7270 C.ar   73  PHE73      -0.0003
    100  CZ         3.6690   -1.2390    7.8990 C.ar   73  PHE73      -0.0000
    101  N          9.3930   -5.5150    3.5210 N.3    76  MET76      -0.1230
    102  CA         9.2410   -4.2230    2.8370 C.3    76  MET76       0.1702
    103  C         10.0020   -3.1120    3.6150 C.2    76  MET76       0.2592
    104  O         10.7860   -2.3400    3.0590 O.2    76  MET76      -0.2718
    105  CB         7.7550   -3.8600    2.7590 C.3    76  MET76       0.0401
    106  CG         7.5120   -2.4660    2.2470 C.3    76  MET76       0.0596
    107  SD         5.7560   -1.9930    2.3740 S.3    76  MET76      -0.1393
    108  CE         5.6150   -1.5330    4.0690 C.3    76  MET76       0.0692
    109  N          9.7970   -3.0730    4.9140 N.am   77  MET77      -0.1979
    110  CA        10.4330   -2.0760    5.7470 C.3    77  MET77       0.1605
    111  C         11.9300   -2.3100    5.8170 C.2    77  MET77       0.2287
    112  O         12.7250   -1.3640    5.6570 O.2    77  MET77      -0.2864
    113  CB         9.8150   -2.1200    7.1390 C.3    77  MET77       0.0413
    114  CG         8.3440   -1.6580    7.1590 C.3    77  MET77       0.0598
    115  SD         8.1090   -0.1160    6.1860 S.3    77  MET77      -0.1393
    116  CE         9.1240    0.9950    7.1390 C.3    77  MET77       0.0692
    117  N         13.7970   -3.7200    3.7540 N.3    79  ARG79      -0.1231
    118  CA        14.2910   -3.3420    2.4280 C.3    79  ARG79       0.1694
    119  C         14.4580   -1.8170    2.2500 C.2    79  ARG79       0.2592
    120  O         15.4290   -1.3530    1.6420 O.2    79  ARG79      -0.2718
    121  CB        13.3440   -3.8750    1.3450 C.3    79  ARG79       0.0321
    122  CG        13.9030   -3.7970   -0.0640 C.3    79  ARG79       0.0489
    123  CD        12.8660   -4.2740   -1.0760 C.3    79  ARG79       0.2205
    124  NE        11.9210   -5.2180   -0.4700 N.pl3  79  ARG79      -0.0865
    125  CZ        10.6010   -5.2090   -0.6750 C.cat  79  ARG79       0.5346
    126  NH1       10.0580   -4.2980   -1.4760 N.pl3  79  ARG79       0.1354
    127  NH2        9.8190   -6.0980   -0.0610 N.pl3  79  ARG79       0.1354
    128  N         13.5280   -1.0290    2.7870 N.am   80  SER80      -0.1952
    129  CA        13.6260    0.4070    2.6150 C.3    80  SER80       0.1924
    130  C         14.7430    0.9780    3.4810 C.2    80  SER80       0.2314
    131  O         15.4200    1.9190    3.0830 O.2    80  SER80      -0.2863
    132  CB        12.2890    1.0770    2.9580 C.3    80  SER80       0.2116
    133  OG        12.1290    1.1690    4.3570 O.3    80  SER80      -0.2180
    134  N         15.8500    6.2700   -4.0320 N.3    83  LYS83      -0.1231
    135  CA        14.3850    5.9520   -4.1700 C.3    83  LYS83       0.1693
    136  C         13.6790    6.0300   -2.8140 C.2    83  LYS83       0.2592
    137  O         12.6120    6.6420   -2.6800 O.2    83  LYS83      -0.2718
    138  CB        14.1780    4.5400   -4.7320 C.3    83  LYS83       0.0285
    139  CG        12.7070    4.1430   -4.8730 C.3    83  LYS83       0.0035
    140  CD        12.5230    2.6230   -5.0070 C.3    83  LYS83       0.0206
    141  CE        12.0820    2.2020   -6.4080 C.3    83  LYS83       0.1093
    142  NZ        13.2240    1.9740   -7.3460 N.3    83  LYS83      -0.1314
    143  N         14.2810    5.3900   -1.8190 N.am   84  SER84      -0.1952
    144  CA        13.7370    5.3860   -0.4710 C.3    84  SER84       0.1924
    145  C         13.7310    6.8190    0.0610 C.2    84  SER84       0.2314
    146  O         12.7960    7.2270    0.7590 O.2    84  SER84      -0.2863
    147  CB        14.5780    4.4770    0.4330 C.3    84  SER84       0.2116
    148  OG        14.0070    4.3630    1.7290 O.3    84  SER84      -0.2180
    149  N         10.6150    8.7140   -1.2450 N.3    87  GLU87      -0.1231
    150  CA         9.3600    8.3450   -0.6040 C.3    87  GLU87       0.1699
    151  C          9.3250    8.9060    0.7890 C.2    87  GLU87       0.2592
    152  O          8.2720    9.2640    1.2820 O.2    87  GLU87      -0.2718
    153  CB         9.1990    6.8360   -0.4710 C.3    87  GLU87       0.0402
    154  CG         9.1640    6.0420   -1.7580 C.3    87  GLU87       0.1161
    155  CD         9.0160    4.5360   -1.4830 C.2    87  GLU87       0.3649
    156  OE1        7.9180    4.1380   -0.9820 O.co2  87  GLU87      -0.2457
    157  OE2       10.0050    3.7950   -1.7670 O.co2  87  GLU87      -0.2457
    158  N         10.4870    8.9470    1.4500 N.am   88  LEU88      -0.1980
    159  CA        10.5380    9.4600    2.8010 C.3    88  LEU88       0.1596
    160  C         10.1670   10.9710    2.8100 C.2    88  LEU88       0.2287
    161  O          9.4500   11.4490    3.6980 O.2    88  LEU88      -0.2864
    162  CB        11.9550    9.2230    3.3730 C.3    88  LEU88       0.0297
    163  CG        12.1610    8.2010    4.5020 C.3    88  LEU88       0.0022
    164  CD1       10.9910    7.2310    4.5500 C.3    88  LEU88       0.0001
    165  CD2       13.4920    7.4510    4.2960 C.3    88  LEU88       0.0001
    166  N          6.3560   11.3150    2.2990 N.3    91  LEU91      -0.1245
    167  CA         5.6720   10.8970    3.5190 C.3    91  LEU91       0.1561
    168  C          5.7590   12.0220    4.5350 C.2    91  LEU91       0.2260
    169  O          4.7520   12.3800    5.1770 O.2    91  LEU91      -0.2867
    170  CB         6.3420    9.6470    4.0820 C.3    91  LEU91       0.0270
    171  CG         5.6730    9.0560    5.3220 C.3    91  LEU91       0.0019
    172  CD1        4.1160    8.8590    4.9820 C.3    91  LEU91       0.0001
    173  CD2        6.3230    7.6800    5.6730 C.3    91  LEU91       0.0001
    174  N          3.4180   14.6920    3.7250 N.3    94  MET94      -0.1245
    175  CA         2.0190   14.3070    3.9320 C.3    94  MET94       0.1570
    176  C          1.6020   14.6970    5.3530 C.2    94  MET94       0.2261
    177  O          0.4610   15.0710    5.5900 O.2    94  MET94      -0.2867
    178  CB         1.8480   12.8010    3.7250 C.3    94  MET94       0.0387
    179  CG         2.0190   12.3580    2.2600 C.3    94  MET94       0.0595
    180  SD         1.6780   10.6170    2.0820 S.3    94  MET94      -0.1393
    181  CE         2.7720   10.3040    0.7450 C.3    94  MET94       0.0692
    182  N         12.9850    7.0170   10.8170 N.3   146  MET146     -0.1245
    183  CA        12.5590    6.0320    9.8330 C.3   146  MET146      0.1570
    184  C         13.6410    5.0400    9.3770 C.2   146  MET146      0.2261
    185  O         13.3190    3.9400    9.0160 O.2   146  MET146     -0.2867
    186  CB        12.0380    6.7250    8.5970 C.3   146  MET146      0.0387
    187  CG        10.7260    7.4380    8.7710 C.3   146  MET146      0.0595
    188  SD         9.3160    6.3780    9.1460 S.3   146  MET146     -0.1393
    189  CE         9.1470    6.9760   10.7750 C.3   146  MET146      0.0692
@<TRIPOS>BOND
     1   142   141    1
     2    74    73   ar
     3   141   140    1
     4    73    75   ar
     5    73    72    1
     6    51    52    1
     7    67    68    1
     8    68    71    1
     9    68    69    1
    10    71    72    1
    11   140   139    1
    12   139   138    1
    13   138   135    1
    14    52    53    1
    15    52    55    1
    16   135   134    1
    17   135   136    1
    18    61    62    2
    19    61    60    1
    20    69    70    2
    21    69    76   am
    22    56    55    1
    23    56    57    1
    24    59    53   am
    25    59    60    1
    26    53    54    2
    27    63    60    1
    28    63    65    1
    29    63    64    1
    30    57    58    1
    31    76    77    1
    32   136   137    2
    33   136   143   am
    34    64    66    1
    35   143   144    1
    36   157   155   ar
    37   154   155    1
    38   154   153    1
    39    77    78    1
    40    77    80    1
    41    78    79    2
    42   155   156   ar
    43   126   125    1
    44    27    25    1
    45   149   150    1
    46    42    41    1
    47   123   124    1
    48   123   122    1
    49    81    80    1
    50   125   124    2
    51   125   127    1
    52   150   153    1
    53   150   151    1
    54    80    82    1
    55   144   145    1
    56   144   147    1
    57    25    24    1
    58    25    26    1
    59    40    39    1
    60    40    41    1
    61   122   121    1
    62   145   146    2
    63    24    21    1
    64    39    36    1
    65   147   148    1
    66    89    87    1
    67   181   180    1
    68   151   152    2
    69   151   158   am
    70    22    23    2
    71    22    21    1
    72    21    20    1
    73    15    14    2
    74   121   118    1
    75    83    84    1
    76   158   159    1
    77    36    37    1
    78    36    35    1
    79   120   119    2
    80    37    38    2
    81    14    13    1
    82    87    84    1
    83    87    88    1
    84    84    85    1
    85   180   179    1
    86   106   107    1
    87   106   105    1
    88   119   118    1
    89   119   128   am
    90   179   178    1
    91   166   167    1
    92   107   108    1
    93   118   117    1
    94    35    30   am
    95   129   128    1
    96   129   132    1
    97   129   130    1
    98   105   102    1
    99   159   160    1
   100   159   162    1
   101   160   161    2
   102   102   101    1
   103   102   103    1
   104   132   133    1
   105   104   103    2
   106   131   130    2
   107    18    16    1
   108   162   163    1
   109    13    16    1
   110    13    12    1
   111    46    45    2
   112   167   170    1
   113   167   168    1
   114    85    86    2
   115    16    17    1
   116   103   109   am
   117   174   175    1
   118   178   175    1
   119    45    44    1
   120    30    31    2
   121    30    29    1
   122   175   176    1
   123    28    29    1
   124   170   171    1
   125   165   163    1
   126   163   164    1
   127    47    44    1
   128    47    48    1
   129   168   169    2
   130    29    32    1
   131    44    43    1
   132   109   110    1
   133    32    33    1
   134    32    34    1
   135   172   171    1
   136    10     8   ar
   137    10    11   ar
   138    17    19    1
   139    90    91    1
   140    49    48    1
   141   171   173    1
   142   176   177    2
   143     8     6   ar
   144    48    50    1
   145    91    92    1
   146    91    94    1
   147   112   111    2
   148   110   111    1
   149   110   113    1
   150    93    92    2
   151    11     9   ar
   152   115   116    1
   153   115   114    1
   154    96    98   ar
   155    96    95   ar
   156     6     5    1
   157     6     7   ar
   158    98   100   ar
   159    94    95    1
   160     4     3    2
   161     5     2    1
   162    95    97   ar
   163   113   114    1
   164     9     7   ar
   165     3     2    1
   166     2     1    1
   167   100    99   ar
   168    97    99   ar
   169   186   187    1
   170   186   183    1
   171   187   188    1
   172   185   184    2
   173   188   189    1
   174   184   183    1
   175   183   182    1
