@<TRIPOS>MOLECULE
tmp/1dtlA01.pdb
 199 187 0 0 0
SMALL
GASTEIGER

@<TRIPOS>ATOM
      1  N          6.8590   -2.1720   16.9740 N.3    15  GLU15      -0.1231
      2  CA         6.5200   -0.8360   16.4850 C.3    15  GLU15       0.1699
      3  C          5.9900   -0.9560   15.0570 C.2    15  GLU15       0.2592
      4  O          5.0080   -0.3020   14.6840 O.2    15  GLU15      -0.2718
      5  CB         7.7330    0.1010   16.5210 C.3    15  GLU15       0.0402
      6  CG         8.1920    0.4190   17.9310 C.3    15  GLU15       0.1161
      7  CD         9.5710    1.0630   17.9840 C.2    15  GLU15       0.3649
      8  OE1       10.4640    0.6390   17.2040 O.co2  15  GLU15      -0.2457
      9  OE2        9.7570    1.9820   18.8180 O.co2  15  GLU15      -0.2457
     10  N          6.6470   -1.7790   14.2410 N.am   16  PHE16      -0.1976
     11  CA         6.1740   -1.9480   12.8750 C.3    16  PHE16       0.1639
     12  C          4.8060   -2.6010   12.9070 C.2    16  PHE16       0.2290
     13  O          3.9920   -2.3060   12.0750 O.2    16  PHE16      -0.2864
     14  CB         7.1390   -2.7880   12.0370 C.3    16  PHE16       0.0560
     15  CG         8.3560   -2.0370   11.5900 C.ar   16  PHE16      -0.0200
     16  CD1        8.2480   -0.7500   11.0910 C.ar   16  PHE16      -0.0042
     17  CD2        9.6060   -2.6470   11.5800 C.ar   16  PHE16      -0.0042
     18  CE1        9.3880   -0.0670   10.5760 C.ar   16  PHE16      -0.0003
     19  CE2       10.7450   -1.9690   11.0680 C.ar   16  PHE16      -0.0003
     20  CZ        10.6190   -0.6760   10.5640 C.ar   16  PHE16      -0.0000
     21  N          2.1510   -0.1260   13.4020 N.3    19  ALA19      -0.1245
     22  CA         1.8790    0.6080   12.1800 C.3    19  ALA19       0.1562
     23  C          1.0290   -0.2720   11.2770 C.2    19  ALA19       0.2260
     24  O          0.0920    0.2310   10.6350 O.2    19  ALA19      -0.2867
     25  CB         3.1710    0.9670   11.4570 C.3    19  ALA19       0.0290
     26  N         -2.7590   -0.3270   11.9150 N.3    22  ILE22      -0.1231
     27  CA        -3.5330    0.7960   11.4010 C.3    22  ILE22       0.1692
     28  C         -3.9450    0.5230    9.9510 C.2    22  ILE22       0.2592
     29  O         -5.0600    0.8400    9.5450 O.2    22  ILE22      -0.2718
     30  CB        -2.7150    2.1060   11.4580 C.3    22  ILE22       0.0266
     31  CG1       -2.3180    2.4020   12.9130 C.3    22  ILE22       0.0019
     32  CG2       -3.5410    3.2650   10.8980 C.3    22  ILE22       0.0020
     33  CD1       -1.1800    3.4290   13.0690 C.3    22  ILE22       0.0001
     34  N         -3.0600   -0.0560    9.1550 N.am   23  PHE23      -0.1976
     35  CA        -3.4500   -0.3150    7.7800 C.3    23  PHE23       0.1639
     36  C         -4.5800   -1.3700    7.6510 C.2    23  PHE23       0.2290
     37  O         -5.4270   -1.2950    6.7390 O.2    23  PHE23      -0.2864
     38  CB        -2.2420   -0.8040    6.9640 C.3    23  PHE23       0.0560
     39  CG        -1.2140    0.2630    6.6490 C.ar   23  PHE23      -0.0200
     40  CD1       -0.2840    0.6610    7.6110 C.ar   23  PHE23      -0.0042
     41  CD2       -1.1490    0.8250    5.3740 C.ar   23  PHE23      -0.0042
     42  CE1        0.6950    1.5930    7.3200 C.ar   23  PHE23      -0.0003
     43  CE2       -0.1670    1.7720    5.0540 C.ar   23  PHE23      -0.0003
     44  CZ         0.7550    2.1610    6.0140 C.ar   23  PHE23      -0.0000
     45  N         -5.5980    4.5970    3.9750 N.3    40  VAL40      -0.1245
     46  CA        -4.5110    5.3130    4.6980 C.3    40  VAL40       0.1561
     47  C         -4.0340    6.5040    3.8290 C.2    40  VAL40       0.2260
     48  O         -3.8680    7.6470    4.3010 O.2    40  VAL40      -0.2867
     49  CB        -3.3260    4.3360    4.9680 C.3    40  VAL40       0.0252
     50  CG1       -2.0810    5.0700    5.5720 C.3    40  VAL40       0.0019
     51  CG2       -3.7810    3.3030    5.9450 C.3    40  VAL40       0.0019
     52  N         -6.4300    9.2590    4.1240 N.3    43  MET43      -0.1230
     53  CA        -6.4070    9.8330    5.4570 C.3    43  MET43       0.1702
     54  C         -5.2250   10.7920    5.5250 C.2    43  MET43       0.2592
     55  O         -5.2570   11.7650    6.2610 O.2    43  MET43      -0.2718
     56  CB        -6.2150    8.7420    6.5080 C.3    43  MET43       0.0401
     57  CG        -6.0630    9.2930    7.9140 C.3    43  MET43       0.0596
     58  SD        -5.5410    7.9980    9.1260 S.3    43  MET43      -0.1393
     59  CE        -3.7150    8.0560    8.8100 C.3    43  MET43       0.0692
     60  N         -4.1770   10.5040    4.7670 N.am   44  LEU44      -0.1980
     61  CA        -2.9790   11.3470    4.7670 C.3    44  LEU44       0.1596
     62  C         -3.0610   12.4930    3.7550 C.2    44  LEU44       0.2287
     63  O         -2.0660   13.1660    3.5110 O.2    44  LEU44      -0.2864
     64  CB        -1.7160   10.5090    4.5110 C.3    44  LEU44       0.0297
     65  CG        -1.3840    9.4620    5.5800 C.3    44  LEU44       0.0022
     66  CD1       -0.1390    8.7690    5.1600 C.3    44  LEU44       0.0001
     67  CD2       -1.2700   10.0940    7.0180 C.3    44  LEU44       0.0001
     68  N          5.1930   -7.0680    5.1580 N.3    73  PHE73      -0.1241
     69  CA         5.2650   -5.6690    5.6020 C.3    73  PHE73       0.1605
     70  C          6.6500   -5.4590    6.2030 C.2    73  PHE73       0.2264
     71  O          7.3200   -4.4430    5.9270 O.2    73  PHE73      -0.2867
     72  CB         4.2110   -5.4010    6.6770 C.3    73  PHE73       0.0534
     73  CG         4.0790   -3.9280    7.0770 C.ar   73  PHE73      -0.0203
     74  CD1        3.3830   -3.0260    6.2750 C.ar   73  PHE73      -0.0042
     75  CD2        4.5800   -3.4920    8.2840 C.ar   73  PHE73      -0.0042
     76  CE1        3.1620   -1.6970    6.6550 C.ar   73  PHE73      -0.0003
     77  CE2        4.3870   -2.1530    8.7270 C.ar   73  PHE73      -0.0003
     78  CZ         3.6690   -1.2390    7.8990 C.ar   73  PHE73      -0.0000
     79  N          9.3930   -5.5150    3.5210 N.3    76  MET76      -0.1230
     80  CA         9.2410   -4.2230    2.8370 C.3    76  MET76       0.1702
     81  C         10.0020   -3.1120    3.6150 C.2    76  MET76       0.2592
     82  O         10.7860   -2.3400    3.0590 O.2    76  MET76      -0.2718
     83  CB         7.7550   -3.8600    2.7590 C.3    76  MET76       0.0401
     84  CG         7.5120   -2.4660    2.2470 C.3    76  MET76       0.0596
     85  SD         5.7560   -1.9930    2.3740 S.3    76  MET76      -0.1393
     86  CE         5.6150   -1.5330    4.0690 C.3    76  MET76       0.0692
     87  N          9.7970   -3.0730    4.9140 N.am   77  MET77      -0.1979
     88  CA        10.4330   -2.0760    5.7470 C.3    77  MET77       0.1605
     89  C         11.9300   -2.3100    5.8170 C.2    77  MET77       0.2287
     90  O         12.7250   -1.3640    5.6570 O.2    77  MET77      -0.2864
     91  CB         9.8150   -2.1200    7.1390 C.3    77  MET77       0.0413
     92  CG         8.3440   -1.6580    7.1590 C.3    77  MET77       0.0598
     93  SD         8.1090   -0.1160    6.1860 S.3    77  MET77      -0.1393
     94  CE         9.1240    0.9950    7.1390 C.3    77  MET77       0.0692
     95  N         10.4870    8.9470    1.4500 N.3    88  LEU88      -0.1245
     96  CA        10.5380    9.4600    2.8010 C.3    88  LEU88       0.1561
     97  C         10.1670   10.9710    2.8100 C.2    88  LEU88       0.2260
     98  O          9.4500   11.4490    3.6980 O.2    88  LEU88      -0.2867
     99  CB        11.9550    9.2230    3.3730 C.3    88  LEU88       0.0270
    100  CG        12.1610    8.2010    4.5020 C.3    88  LEU88       0.0019
    101  CD1       10.9910    7.2310    4.5500 C.3    88  LEU88       0.0001
    102  CD2       13.4920    7.4510    4.2960 C.3    88  LEU88       0.0001
    103  N          6.3560   11.3150    2.2990 N.3    91  LEU91      -0.1245
    104  CA         5.6720   10.8970    3.5190 C.3    91  LEU91       0.1561
    105  C          5.7590   12.0220    4.5350 C.2    91  LEU91       0.2260
    106  O          4.7520   12.3800    5.1770 O.2    91  LEU91      -0.2867
    107  CB         6.3420    9.6470    4.0820 C.3    91  LEU91       0.0270
    108  CG         5.6730    9.0560    5.3220 C.3    91  LEU91       0.0019
    109  CD1        4.1160    8.8590    4.9820 C.3    91  LEU91       0.0001
    110  CD2        6.3230    7.6800    5.6730 C.3    91  LEU91       0.0001
    111  N          2.5180   14.5570    6.3150 N.3    95  PHE95      -0.1241
    112  CA         2.2470   14.9630    7.6920 C.3    95  PHE95       0.1605
    113  C          2.5320   16.5100    7.8820 C.2    95  PHE95       0.2264
    114  O          1.9260   17.1820    8.7270 O.2    95  PHE95      -0.2867
    115  CB         3.1790   14.1690    8.6240 C.3    95  PHE95       0.0534
    116  CG         2.7170   12.7910    8.9180 C.ar   95  PHE95      -0.0203
    117  CD1        1.8360   12.5710    9.9540 C.ar   95  PHE95      -0.0042
    118  CD2        3.1410   11.7040    8.1520 C.ar   95  PHE95      -0.0042
    119  CE1        1.3540   11.2590   10.2520 C.ar   95  PHE95      -0.0003
    120  CE2        2.6610   10.3580    8.4320 C.ar   95  PHE95      -0.0003
    121  CZ         1.7620   10.1460    9.4900 C.ar   95  PHE95      -0.0000
    122  N          7.0870   18.3370   12.0110 N.3   103  ILE103     -0.1245
    123  CA         5.8530   17.5830   12.2220 C.3   103  ILE103      0.1561
    124  C          5.5880   17.8060   13.7070 C.2   103  ILE103      0.2260
    125  O          6.3090   17.2470   14.5540 O.2   103  ILE103     -0.2867
    126  CB         6.0240   16.0840   11.9800 C.3   103  ILE103      0.0252
    127  CG1        6.3400   15.8510   10.4980 C.3   103  ILE103      0.0019
    128  CG2        4.7300   15.3170   12.4230 C.3   103  ILE103      0.0019
    129  CD1        6.5440   14.3180   10.1450 C.3   103  ILE103      0.0001
    130  N          0.6540   15.0550   13.8640 N.3   108  LEU108     -0.1245
    131  CA         0.7070   13.6180   13.9860 C.3   108  LEU108      0.1561
    132  C         -0.7170   13.0580   14.2800 C.2   108  LEU108      0.2260
    133  O         -1.0070   11.9120   13.9550 O.2   108  LEU108     -0.2867
    134  CB         1.6080   13.2500   15.1390 C.3   108  LEU108      0.0270
    135  CG         3.1080   13.1650   15.0180 C.3   108  LEU108      0.0019
    136  CD1        3.6600   12.6090   16.3630 C.3   108  LEU108      0.0001
    137  CD2        3.4460   12.2330   13.8470 C.3   108  LEU108      0.0001
    138  N         -3.3910   10.8120   12.3220 N.3   111  MET111     -0.1245
    139  CA        -3.5610    9.3670   12.3900 C.3   111  MET111      0.1570
    140  C         -4.7190    8.8710   13.2420 C.2   111  MET111      0.2261
    141  O         -4.9440    7.6640   13.2990 O.2   111  MET111     -0.2867
    142  CB        -2.2850    8.7090   12.8710 C.3   111  MET111      0.0387
    143  CG        -1.1240    8.9280   11.9050 C.3   111  MET111      0.0595
    144  SD         0.3630    8.0460   12.3740 S.3   111  MET111     -0.1393
    145  CE         0.9820    9.0590   13.7200 C.3   111  MET111      0.0692
    146  N         -5.0120    3.2320   17.3020 N.3   117  ILE117     -0.1245
    147  CA        -3.8570    3.9870   17.7510 C.3   117  ILE117      0.1561
    148  C         -4.5070    5.0450   18.6340 C.2   117  ILE117      0.2260
    149  O         -5.6040    5.5150   18.3490 O.2   117  ILE117     -0.2867
    150  CB        -3.0720    4.6240   16.5820 C.3   117  ILE117      0.0252
    151  CG1       -1.9460    5.4790   17.1530 C.3   117  ILE117      0.0019
    152  CG2       -4.0030    5.4060   15.6490 C.3   117  ILE117      0.0019
    153  CD1       -1.0680    6.1410   16.0950 C.3   117  ILE117      0.0001
    154  N          5.0230    8.3170   20.2470 N.3   125  LEU125     -0.1245
    155  CA         5.6610    8.3230   18.9400 C.3   125  LEU125      0.1561
    156  C          6.4940    9.6360   18.8740 C.2   125  LEU125      0.2260
    157  O          7.6930    9.6500   18.4660 O.2   125  LEU125     -0.2867
    158  CB         4.5640    8.3460   17.8720 C.3   125  LEU125      0.0270
    159  CG         4.8040    7.6870   16.5130 C.3   125  LEU125      0.0019
    160  CD1        3.6440    8.0280   15.5580 C.3   125  LEU125      0.0001
    161  CD2        6.1100    8.1390   15.9510 C.3   125  LEU125      0.0001
    162  N          9.2500   16.9440   15.1840 N.3   137  ILE137     -0.1245
    163  CA        10.1950   16.0680   14.5010 C.3   137  ILE137      0.1561
    164  C         10.5350   16.7890   13.2190 C.2   137  ILE137      0.2260
    165  O          9.6560   17.0070   12.3820 O.2   137  ILE137     -0.2867
    166  CB         9.5340   14.7340   14.1430 C.3   137  ILE137      0.0252
    167  CG1        9.1320   13.9770   15.4230 C.3   137  ILE137      0.0019
    168  CG2       10.4280   13.9600   13.1980 C.3   137  ILE137      0.0019
    169  CD1        8.3230   12.6690   15.1190 C.3   137  ILE137      0.0001
    170  N         13.1990   12.9040   11.4430 N.3   142  PHE142     -0.1241
    171  CA        12.2860   11.9820   10.7720 C.3   142  PHE142      0.1605
    172  C         13.0720   10.8890   10.0530 C.2   142  PHE142      0.2264
    173  O         12.7440    9.7140   10.1620 O.2   142  PHE142     -0.2867
    174  CB        11.4520   12.7360    9.7330 C.3   142  PHE142      0.0534
    175  CG        10.4600   11.8640    8.9970 C.ar  142  PHE142     -0.0203
    176  CD1        9.3530   11.3440    9.6650 C.ar  142  PHE142     -0.0042
    177  CD2       10.6190   11.5960    7.6280 C.ar  142  PHE142     -0.0042
    178  CE1        8.3760   10.5370    8.9700 C.ar  142  PHE142     -0.0003
    179  CE2        9.7080   10.8360    6.9580 C.ar  142  PHE142     -0.0003
    180  CZ         8.5580   10.2900    7.6480 C.ar  142  PHE142     -0.0000
    181  N         14.7580    8.5580   12.3810 N.3   145  PHE145     -0.1227
    182  CA        13.6860    7.7840   13.0120 C.3   145  PHE145      0.1736
    183  C         13.2670    6.6710   12.0570 C.2   145  PHE145      0.2595
    184  O         13.2260    5.5140   12.4470 O.2   145  PHE145     -0.2718
    185  CB        12.4890    8.7050   13.2760 C.3   145  PHE145      0.0547
    186  CG        11.4310    8.1140   14.1710 C.ar  145  PHE145     -0.0202
    187  CD1       10.0880    8.4950   14.0520 C.ar  145  PHE145     -0.0042
    188  CD2       11.7760    7.2550   15.1860 C.ar  145  PHE145     -0.0042
    189  CE1        9.1030    8.0440   14.9530 C.ar  145  PHE145     -0.0003
    190  CE2       10.7920    6.7870   16.1120 C.ar  145  PHE145     -0.0003
    191  CZ         9.4510    7.1820   15.9910 C.ar  145  PHE145     -0.0000
    192  N         12.9850    7.0170   10.8170 N.am  146  MET146     -0.1979
    193  CA        12.5590    6.0320    9.8330 C.3   146  MET146      0.1605
    194  C         13.6410    5.0400    9.3770 C.2   146  MET146      0.2287
    195  O         13.3190    3.9400    9.0160 O.2   146  MET146     -0.2864
    196  CB        12.0380    6.7250    8.5970 C.3   146  MET146      0.0413
    197  CG        10.7260    7.4380    8.7710 C.3   146  MET146      0.0598
    198  SD         9.3160    6.3780    9.1460 S.3   146  MET146     -0.1393
    199  CE         9.1470    6.9760   10.7750 C.3   146  MET146      0.0692
@<TRIPOS>BOND
     1    95    96    1
     2    84    85    1
     3    84    83    1
     4   103   104    1
     5    85    86    1
     6    83    80    1
     7    96    97    1
     8    96    99    1
     9    97    98    2
    10    80    79    1
    11    80    81    1
    12    82    81    2
    13    99   100    1
    14    63    62    2
    15   104   107    1
    16   104   105    1
    17    81    87   am
    18    62    61    1
    19    47    48    2
    20    47    46    1
    21    45    46    1
    22   107   108    1
    23    52    53    1
    24   102   100    1
    25   100   101    1
    26    64    61    1
    27    64    65    1
    28   105   106    2
    29    46    49    1
    30    61    60    1
    31    60    54   am
    32    87    88    1
    33    49    50    1
    34    49    51    1
    35   109   108    1
    36    43    41   ar
    37    43    44   ar
    38    68    69    1
    39    66    65    1
    40   108   110    1
    41    41    39   ar
    42    53    54    1
    43    53    56    1
    44    54    55    2
    45    65    67    1
    46    69    70    1
    47    69    72    1
    48    90    89    2
    49    88    89    1
    50    88    91    1
    51    71    70    2
    52    44    42   ar
    53    93    94    1
    54    93    92    1
    55    74    76   ar
    56    74    73   ar
    57   111   112    1
    58    56    57    1
    59    39    38    1
    60    39    40   ar
    61    76    78   ar
    62    72    73    1
    63    37    36    2
    64   179   177   ar
    65   179   180   ar
    66    38    35    1
    67    73    75   ar
    68    91    92    1
    69    42    40   ar
    70   177   175   ar
    71   180   178   ar
    72    36    35    1
    73   112   113    1
    74   112   115    1
    75    35    34    1
    76   113   114    2
    77    78    77   ar
    78    57    58    1
    79   118   120   ar
    80   118   116   ar
    81    75    77   ar
    82   120   121   ar
    83   196   197    1
    84   196   193    1
    85   115   116    1
    86   197   198    1
    87    59    58    1
    88   116   117   ar
    89   178   176   ar
    90   175   176   ar
    91   175   174    1
    92   195   194    2
    93   198   199    1
    94    34    28   am
    95   194   193    1
    96   121   119   ar
    97    29    28    2
    98   174   171    1
    99   193   192    1
   100    28    27    1
   101   117   119   ar
   102   172   173    2
   103   172   171    1
   104   129   127    1
   105   127   126    1
   106    20    18   ar
   107    20    19   ar
   108    18    16   ar
   109    24    23    2
   110   171   170    1
   111   192   183   am
   112    32    30    1
   113    19    17   ar
   114    16    15   ar
   115    23    22    1
   116    27    30    1
   117    27    26    1
   118    25    22    1
   119    30    31    1
   120    17    15   ar
   121    15    14    1
   122   143   144    1
   123   143   142    1
   124   126   123    1
   125   126   128    1
   126   122   123    1
   127    14    11    1
   128   183   184    2
   129   183   182    1
   130    13    12    2
   131    22    21    1
   132   123   124    1
   133   138   139    1
   134   144   145    1
   135   181   182    1
   136   165   164    2
   137   139   142    1
   138   139   140    1
   139    11    12    1
   140    11    10    1
   141    31    33    1
   142   182   185    1
   143   168   166    1
   144   164   163    1
   145   140   141    2
   146   185   186    1
   147   124   125    2
   148   137   135    1
   149   130   131    1
   150   133   132    2
   151   131   132    1
   152   131   134    1
   153   187   186   ar
   154   187   189   ar
   155   166   163    1
   156   166   167    1
   157   186   188   ar
   158    10     3   am
   159   163   162    1
   160     4     3    2
   161   189   191   ar
   162   135   134    1
   163   135   136    1
   164     3     2    1
   165   169   167    1
   166   188   190   ar
   167   160   159    1
   168   152   150    1
   169   161   159    1
   170   191   190   ar
   171   153   151    1
   172     2     5    1
   173     2     1    1
   174   159   158    1
   175     5     6    1
   176   150   151    1
   177   150   147    1
   178     8     7   ar
   179   146   147    1
   180   147   148    1
   181   158   155    1
   182     6     7    1
   183     7     9   ar
   184   149   148    2
   185   157   156    2
   186   156   155    1
   187   155   154    1
