@<TRIPOS>MOLECULE
tmp/1dtqA00.pdb
 144 142 0 0 0
SMALL
GASTEIGER

@<TRIPOS>ATOM
      1  N          8.6430  -31.8480   23.5330 N.3    92  PRO92      -0.2116
      2  CA         8.1330  -31.7810   22.1630 C.3    92  PRO92       0.1372
      3  C          7.0510  -30.7210   21.9880 C.2    92  PRO92       0.2244
      4  O          6.0970  -30.6660   22.7470 O.2    92  PRO92      -0.2868
      5  CB         7.6010  -33.1930   21.9390 C.3    92  PRO92       0.0268
      6  CG         8.4880  -34.0260   22.8160 C.3    92  PRO92       0.0207
      7  CD         8.5120  -33.2140   24.0630 C.3    92  PRO92       0.0892
      8  N          4.1080  -32.8720   16.4320 N.3    97  LEU97      -0.1231
      9  CA         3.4790  -34.1770   16.4400 C.3    97  LEU97       0.1693
     10  C          2.7110  -34.4790   15.1690 C.2    97  LEU97       0.2591
     11  O          2.3130  -33.5800   14.4270 O.2    97  LEU97      -0.2718
     12  CB         2.5280  -34.2670   17.6250 C.3    97  LEU97       0.0284
     13  CG         3.1850  -33.8890   18.9520 C.3    97  LEU97       0.0019
     14  CD1        2.1550  -33.8590   20.0750 C.3    97  LEU97       0.0001
     15  CD2        4.2680  -34.8940   19.2690 C.3    97  LEU97       0.0001
     16  N          2.5230  -35.7660   14.9180 N.am   98  LYS98      -0.1980
     17  CA         1.7480  -36.2180   13.7790 C.3    98  LYS98       0.1596
     18  C          0.4470  -36.6340   14.4240 C.2    98  LYS98       0.2287
     19  O          0.4410  -37.1050   15.5610 O.2    98  LYS98      -0.2864
     20  CB         2.4080  -37.4150   13.1110 C.3    98  LYS98       0.0298
     21  CG         3.4720  -37.0330   12.1040 C.3    98  LYS98       0.0038
     22  CD         4.6050  -38.0370   12.0880 C.3    98  LYS98       0.0206
     23  CE         5.2350  -38.1270   13.4740 C.3    98  LYS98       0.1093
     24  NZ         5.4360  -36.7690   14.0850 N.3    98  LYS98      -0.1314
     25  N         -2.5140  -38.7290   15.6410 N.3   100  LYS100     -0.1245
     26  CA        -2.6890  -40.1340   15.9500 C.3   100  LYS100      0.1561
     27  C         -4.1750  -40.4460   16.1390 C.2   100  LYS100      0.2260
     28  O         -4.9430  -39.6100   16.6270 O.2   100  LYS100     -0.2867
     29  CB        -1.8800  -40.4850   17.1990 C.3   100  LYS100      0.0271
     30  CG        -0.3910  -40.6230   16.9050 C.3   100  LYS100      0.0035
     31  CD        -0.1060  -41.9160   16.1270 C.3   100  LYS100      0.0206
     32  CE         0.8690  -41.7210   14.9710 C.3   100  LYS100      0.1093
     33  NZ         0.2780  -40.9140   13.8560 N.3   100  LYS100     -0.1314
     34  N         -4.7430  -42.1350   21.5830 N.3   103  VAL103     -0.1245
     35  CA        -3.6520  -41.8850   22.5000 C.3   103  VAL103      0.1561
     36  C         -4.1120  -42.1100   23.9270 C.2   103  VAL103      0.2260
     37  O         -5.2450  -41.7760   24.2880 O.2   103  VAL103     -0.2867
     38  CB        -3.1550  -40.4410   22.3700 C.3   103  VAL103      0.0252
     39  CG1       -2.1420  -40.1400   23.4560 C.3   103  VAL103      0.0019
     40  CG2       -2.5560  -40.2280   20.9900 C.3   103  VAL103      0.0019
     41  N          3.7760  -45.1360   18.9480 N.3   176  VAL176     -0.1245
     42  CA         4.7080  -44.0830   19.2510 C.3   176  VAL176      0.1561
     43  C          4.6040  -43.8210   20.7420 C.2   176  VAL176      0.2260
     44  O          3.5480  -43.4220   21.2440 O.2   176  VAL176     -0.2867
     45  CB         4.3640  -42.8520   18.4440 C.3   176  VAL176      0.0252
     46  CG1        5.4000  -41.7810   18.6570 C.3   176  VAL176      0.0019
     47  CG2        4.2950  -43.2360   16.9880 C.3   176  VAL176      0.0019
     48  N          6.2270  -41.9790   24.2670 N.3   178  TYR178     -0.1241
     49  CA         6.9810  -40.8470   24.7890 C.3   178  TYR178      0.1605
     50  C          7.1660  -40.9890   26.3030 C.2   178  TYR178      0.2264
     51  O          6.1880  -41.0730   27.0600 O.2   178  TYR178     -0.2867
     52  CB         6.2440  -39.5450   24.4620 C.3   178  TYR178      0.0534
     53  CG         6.8980  -38.2960   25.0150 C.ar  178  TYR178     -0.0201
     54  CD1        6.1770  -37.4070   25.8100 C.ar  178  TYR178     -0.0009
     55  CD2        8.2350  -38.0030   24.7530 C.ar  178  TYR178     -0.0009
     56  CE1        6.7640  -36.2580   26.3370 C.ar  178  TYR178      0.0417
     57  CE2        8.8350  -36.8580   25.2720 C.ar  178  TYR178      0.0417
     58  CZ         8.0900  -35.9900   26.0660 C.ar  178  TYR178      0.1957
     59  OH         8.6720  -34.8600   26.6010 O.3   178  TYR178     -0.2866
     60  N          3.2540  -41.8160   27.3060 N.3   185  TYR185     -0.1227
     61  CA         2.2530  -41.3630   26.3730 C.3   185  TYR185      0.1736
     62  C          2.3740  -42.2160   25.1520 C.2   185  TYR185      0.2595
     63  O          3.4140  -42.2440   24.5070 O.2   185  TYR185     -0.2718
     64  CB         2.4830  -39.9150   26.0080 C.3   185  TYR185      0.0548
     65  CG         2.3840  -39.0010   27.1910 C.ar  185  TYR185     -0.0200
     66  CD1        3.3120  -39.0700   28.2240 C.ar  185  TYR185     -0.0009
     67  CD2        1.3580  -38.0700   27.2850 C.ar  185  TYR185     -0.0009
     68  CE1        3.2240  -38.2280   29.3290 C.ar  185  TYR185      0.0417
     69  CE2        1.2550  -37.2210   28.3810 C.ar  185  TYR185      0.0417
     70  CZ         2.1920  -37.3030   29.4020 C.ar  185  TYR185      0.1957
     71  OH         2.1010  -36.4560   30.4900 O.3   185  TYR185     -0.2866
     72  N          1.3000  -42.9210   24.8400 N.am  186  VAL186     -0.1966
     73  CA         1.2930  -43.7940   23.6900 C.3   186  VAL186      0.1727
     74  C          0.2580  -43.3970   22.6550 C.2   186  VAL186      0.2616
     75  O         -0.9150  -43.2080   22.9760 O.2   186  VAL186     -0.2715
     76  CB         1.0220  -45.2170   24.1170 C.3   186  VAL186      0.0290
     77  CG1        1.0910  -46.1220   22.9140 C.3   186  VAL186      0.0023
     78  CG2        2.0260  -45.6280   25.1650 C.3   186  VAL186      0.0023
     79  N          0.6980  -43.2820   21.4080 N.am  187  GLY187     -0.1955
     80  CA        -0.2150  -42.9190   20.3410 C.3   187  GLY187      0.1869
     81  C         -0.0910  -43.8770   19.1750 C.2   187  GLY187      0.2309
     82  O          0.9970  -44.3900   18.9000 O.2   187  GLY187     -0.2863
     83  N         -5.9860  -33.9490   26.2720 N.3   224  PHE224     -0.1241
     84  CA        -4.7770  -33.9670   27.0680 C.3   224  PHE224      0.1605
     85  C         -4.2450  -32.5690   27.3260 C.2   224  PHE224      0.2264
     86  O         -3.5980  -31.9650   26.4690 O.2   224  PHE224     -0.2867
     87  CB        -3.7150  -34.8100   26.3800 C.3   224  PHE224      0.0534
     88  CG        -3.9020  -36.2830   26.5660 C.ar  224  PHE224     -0.0203
     89  CD1       -4.0310  -36.8200   27.8460 C.ar  224  PHE224     -0.0042
     90  CD2       -3.9030  -37.1440   25.4710 C.ar  224  PHE224     -0.0042
     91  CE1       -4.1530  -38.1950   28.0390 C.ar  224  PHE224     -0.0003
     92  CE2       -4.0240  -38.5240   25.6510 C.ar  224  PHE224     -0.0003
     93  CZ        -4.1490  -39.0500   26.9410 C.ar  224  PHE224     -0.0000
     94  N         -1.7710  -30.5690   28.2890 N.3   226  TRP226     -0.1241
     95  CA        -0.3380  -30.7120   28.4410 C.3   226  TRP226      0.1605
     96  C          0.4610  -29.4150   28.4050 C.2   226  TRP226      0.2264
     97  O          0.2580  -28.5660   27.5360 O.2   226  TRP226     -0.2867
     98  CB         0.1490  -31.6370   27.3410 C.3   226  TRP226      0.0550
     99  CG         1.5360  -32.1010   27.4800 C.ar  226  TRP226      0.0003
    100  CD1        2.0540  -32.8640   28.4880 C.ar  226  TRP226      0.0946
    101  CD2        2.5750  -31.9430   26.5150 C.ar  226  TRP226      0.0152
    102  NE1        3.3550  -33.2040   28.2000 N.ar  226  TRP226     -0.2442
    103  CE2        3.6980  -32.6520   26.9940 C.ar  226  TRP226      0.0810
    104  CE3        2.6640  -31.2760   25.2880 C.ar  226  TRP226      0.0012
    105  CZ2        4.8970  -32.7130   26.2850 C.ar  226  TRP226      0.0191
    106  CZ3        3.8530  -31.3360   24.5860 C.ar  226  TRP226      0.0001
    107  CH2        4.9560  -32.0510   25.0860 C.ar  226  TRP226      0.0015
    108  N         -4.3140  -30.7000   24.1300 N.3   231  LEU231     -0.1231
    109  CA        -4.0910  -31.6530   23.0460 C.3   231  LEU231      0.1693
    110  C         -5.1380  -32.7040   22.7060 C.2   231  LEU231      0.2592
    111  O         -5.4850  -33.5630   23.5210 O.2   231  LEU231     -0.2718
    112  CB        -2.7430  -32.3480   23.2670 C.3   231  LEU231      0.0284
    113  CG        -1.5830  -31.3760   23.5140 C.3   231  LEU231      0.0019
    114  CD1       -0.2810  -32.1260   23.6110 C.3   231  LEU231      0.0001
    115  CD2       -1.5130  -30.3660   22.3850 C.3   231  LEU231      0.0001
    116  N         -5.6170  -32.6200   21.4690 N.am  232  HIS232     -0.1962
    117  CA        -6.5930  -33.5480   20.9290 C.3   232  HIS232      0.1772
    118  C         -5.8450  -34.3450   19.8790 C.2   232  HIS232      0.2462
    119  O         -4.9490  -33.8220   19.2250 O.2   232  HIS232     -0.2730
    120  CB        -7.7430  -32.8110   20.2380 C.3   232  HIS232      0.0785
    121  CG        -8.7660  -32.2500   21.1760 C.ar  232  HIS232      0.0821
    122  ND1       -8.8390  -30.9050   21.4810 N.ar  232  HIS232     -0.2267
    123  CD2       -9.7640  -32.8480   21.8630 C.ar  232  HIS232      0.1154
    124  CE1       -9.8410  -30.7040   22.3190 C.ar  232  HIS232      0.1986
    125  NE2      -10.4190  -31.8640   22.5680 N.ar  232  HIS232     -0.2212
    126  N         -6.2060  -35.6180   19.6980 N.am  233  PRO233     -0.2727
    127  CA        -5.5770  -36.5070   18.7170 C.3   233  PRO233      0.1402
    128  C         -5.5330  -35.9170   17.3030 C.2   233  PRO233      0.2269
    129  O         -4.7370  -36.3550   16.4690 O.2   233  PRO233     -0.2865
    130  CB        -6.4550  -37.7430   18.7790 C.3   233  PRO233      0.0296
    131  CG        -6.8810  -37.7650   20.2200 C.3   233  PRO233      0.0237
    132  CD        -7.2310  -36.3350   20.4780 C.3   233  PRO233      0.0939
    133  N         -1.6710  -30.9330   13.3440 N.3   314  TYR314     -0.1241
    134  CA        -0.4160  -31.6590   13.4880 C.3   314  TYR314      0.1605
    135  C          0.4620  -31.6710   12.2660 C.2   314  TYR314      0.2264
    136  O          0.0540  -31.2830   11.1660 O.2   314  TYR314     -0.2867
    137  CB        -0.6710  -33.0870   13.9430 C.3   314  TYR314      0.0534
    138  CG        -1.1370  -33.1150   15.3550 C.ar  314  TYR314     -0.0201
    139  CD1       -0.3280  -32.6180   16.3790 C.ar  314  TYR314     -0.0009
    140  CD2       -2.4220  -33.5420   15.6740 C.ar  314  TYR314     -0.0009
    141  CE1       -0.7970  -32.5340   17.6940 C.ar  314  TYR314      0.0417
    142  CE2       -2.9030  -33.4630   16.9850 C.ar  314  TYR314      0.0417
    143  CZ        -2.0860  -32.9560   17.9860 C.ar  314  TYR314      0.1957
    144  OH        -2.5650  -32.8670   19.2730 O.3   314  TYR314     -0.2866
@<TRIPOS>BOND
     1   136   135    2
     2    22    21    1
     3    22    23    1
     4    21    20    1
     5   135   134    1
     6    20    17    1
     7   133   134    1
     8    23    24    1
     9   134   137    1
    10    17    18    1
    11    17    16    1
    12    33    32    1
    13   137   138    1
    14    18    19    2
    15    11    10    2
    16    16    10   am
    17    32    31    1
    18    10     9    1
    19   138   140   ar
    20   138   139   ar
    21    25    26    1
    22   140   142   ar
    23    26    27    1
    24    26    29    1
    25    31    30    1
    26    27    28    2
    27   139   141   ar
    28     8     9    1
    29     9    12    1
    30   129   128    2
    31    30    29    1
    32   142   143   ar
    33    47    45    1
    34   128   127    1
    35    12    13    1
    36   141   143   ar
    37   143   144    1
    38    45    46    1
    39    45    42    1
    40   127   130    1
    41   127   126    1
    42   130   131    1
    43    82    81    2
    44    41    42    1
    45    13    15    1
    46    13    14    1
    47    81    80    1
    48   119   118    2
    49    42    43    1
    50   126   118   am
    51   126   132    1
    52   118   117    1
    53   131   132    1
    54   120   117    1
    55   120   121    1
    56    80    79    1
    57    43    44    2
    58   117   116    1
    59    40    38    1
    60   121   122   ar
    61   121   123   ar
    62    79    74   am
    63   116   110   am
    64   122   124   ar
    65    34    35    1
    66   123   125   ar
    67     5     2    1
    68     5     6    1
    69     3     2    1
    70     3     4    2
    71     2     1    1
    72   124   125   ar
    73    38    35    1
    74    38    39    1
    75   115   113    1
    76    35    36    1
    77    74    75    2
    78    74    73    1
    79   110   109    1
    80   110   111    2
    81     6     7    1
    82    77    76    1
    83   109   112    1
    84   109   108    1
    85   112   113    1
    86   113   114    1
    87     1     7    1
    88    73    76    1
    89    73    72    1
    90    36    37    2
    91    76    78    1
    92    48    49    1
    93    52    49    1
    94    52    53    1
    95    63    62    2
    96   106   107   ar
    97   106   104   ar
    98    55    53   ar
    99    55    57   ar
   100    49    50    1
   101    72    62   am
   102    53    54   ar
   103   107   105   ar
   104    62    61    1
   105    57    58   ar
   106   104   101   ar
   107    90    92   ar
   108    90    88   ar
   109    92    93   ar
   110    54    56   ar
   111    64    61    1
   112    64    65    1
   113    58    56   ar
   114    58    59    1
   115    83    84    1
   116   105   103   ar
   117    50    51    2
   118    61    60    1
   119    87    88    1
   120    87    84    1
   121    86    85    2
   122   101   103   ar
   123   101    99   ar
   124    88    89   ar
   125    93    91   ar
   126   103   102   ar
   127    84    85    1
   128    65    67   ar
   129    65    66   ar
   130    67    69   ar
   131    98    99    1
   132    98    95    1
   133    99   100   ar
   134    97    96    2
   135    89    91   ar
   136   102   100   ar
   137    66    68   ar
   138    94    95    1
   139    69    70   ar
   140    96    95    1
   141    68    70   ar
   142    70    71    1
