@<TRIPOS>MOLECULE
tmp/1dtuA02.pdb
 167 167 0 0 0
SMALL
GASTEIGER

@<TRIPOS>ATOM
      1  N         30.6390   92.4320   47.2140 N.3    47  ARG47      -0.1245
      2  CA        31.3220   91.5230   48.1160 C.3    47  ARG47       0.1563
      3  C         30.4440   90.3480   48.5150 C.2    47  ARG47       0.2260
      4  O         30.8440   89.5050   49.3160 O.2    47  ARG47      -0.2867
      5  CB        31.8820   92.2330   49.3410 C.3    47  ARG47       0.0307
      6  CG        33.0800   93.1170   49.0190 C.3    47  ARG47       0.0489
      7  CD        33.7350   93.6960   50.2670 C.3    47  ARG47       0.2205
      8  NE        34.7220   94.7290   49.9730 N.pl3  47  ARG47      -0.0865
      9  CZ        34.4260   96.0070   49.7460 C.cat  47  ARG47       0.5346
     10  NH1       33.1740   96.4620   49.7670 N.pl3  47  ARG47       0.1354
     11  NH2       35.4130   96.8600   49.4930 N.pl3  47  ARG47       0.1354
     12  N         31.6000   90.2260   53.8870 N.3    94  ASN94      -0.1240
     13  CA        32.3450   89.5680   52.8330 C.3    94  ASN94       0.1653
     14  C         31.9940   88.0950   52.7170 C.2    94  ASN94       0.2266
     15  O         31.7970   87.4070   53.7180 O.2    94  ASN94      -0.2867
     16  CB        33.8650   89.7420   52.9970 C.3    94  ASN94       0.1155
     17  CG        34.3430   91.1490   52.7040 C.2    94  ASN94       0.2627
     18  OD1       35.0330   91.3930   51.7030 O.2    94  ASN94      -0.2716
     19  ND2       33.9890   92.0760   53.5890 N.am   94  ASN94      -0.0877
     20  N         32.4830   84.4500   47.4190 N.3    97  TYR97      -0.1227
     21  CA        31.9690   84.4540   46.0640 C.3    97  TYR97       0.1736
     22  C         33.0580   84.2310   45.0290 C.2    97  TYR97       0.2595
     23  O         32.7840   83.7760   43.9210 O.2    97  TYR97      -0.2718
     24  CB        31.2080   85.7540   45.7480 C.3    97  TYR97       0.0548
     25  CG        32.1530   86.9030   45.5020 C.ar   97  TYR97      -0.0200
     26  CD1       32.6020   87.1990   44.2150 C.ar   97  TYR97      -0.0009
     27  CD2       32.6380   87.6620   46.5660 C.ar   97  TYR97      -0.0009
     28  CE1       33.5020   88.2400   43.9880 C.ar   97  TYR97       0.0417
     29  CE2       33.5460   88.7010   46.3620 C.ar   97  TYR97       0.0417
     30  CZ        33.9760   88.9870   45.0660 C.ar   97  TYR97       0.1957
     31  OH        34.8650   90.0040   44.8540 O.3    97  TYR97      -0.2866
     32  N         34.2900   84.5850   45.3840 N.am   98  HIS98      -0.1975
     33  CA        35.4220   84.4640   44.4830 C.3    98  HIS98       0.1656
     34  C         35.9550   83.0440   44.3410 C.2    98  HIS98       0.2291
     35  O         36.6440   82.7260   43.3720 O.2    98  HIS98      -0.2864
     36  CB        36.5450   85.4410   44.8670 C.3    98  HIS98       0.0771
     37  CG        36.7200   85.5730   46.3450 C.ar   98  HIS98       0.0820
     38  ND1       37.4840   84.6710   47.0700 N.ar   98  HIS98      -0.2267
     39  CD2       36.2390   86.5070   47.2080 C.ar   98  HIS98       0.1154
     40  CE1       37.4540   85.0710   48.3350 C.ar   98  HIS98       0.1986
     41  NE2       36.7190   86.1730   48.4520 N.ar   98  HIS98      -0.2212
     42  N         38.1270   81.5940   46.4210 N.3   100  TYR100     -0.1227
     43  CA        39.5050   81.4670   46.8750 C.3   100  TYR100      0.1736
     44  C         39.6810   81.0390   48.3250 C.2   100  TYR100      0.2595
     45  O         40.8070   80.8720   48.7940 O.2   100  TYR100     -0.2718
     46  CB        40.3500   82.7230   46.5830 C.3   100  TYR100      0.0548
     47  CG        40.6780   82.9370   45.1230 C.ar  100  TYR100     -0.0200
     48  CD1       41.5290   82.0690   44.4390 C.ar  100  TYR100     -0.0009
     49  CD2       40.1630   84.0350   44.4330 C.ar  100  TYR100     -0.0009
     50  CE1       41.8420   82.2720   43.0940 C.ar  100  TYR100      0.0417
     51  CE2       40.4560   84.2530   43.0870 C.ar  100  TYR100      0.0417
     52  CZ        41.3000   83.3660   42.4180 C.ar  100  TYR100      0.1957
     53  OH        41.6010   83.5780   41.0970 O.3   100  TYR100     -0.2866
     54  N         38.5680   80.8810   49.0370 N.am  101  TRP101     -0.1976
     55  CA        38.6010   80.4930   50.4370 C.3   101  TRP101      0.1640
     56  C         38.1470   79.0560   50.6350 C.2   101  TRP101      0.2290
     57  O         37.0710   78.8090   51.1730 O.2   101  TRP101     -0.2864
     58  CB        37.7420   81.4450   51.2910 C.3   101  TRP101      0.0576
     59  CG        38.2350   82.8590   51.2610 C.ar  101  TRP101      0.0006
     60  CD1       39.4840   83.2600   50.9220 C.ar  101  TRP101      0.0946
     61  CD2       37.5010   84.0490   51.5800 C.ar  101  TRP101      0.0152
     62  NE1       39.5820   84.6220   51.0040 N.ar  101  TRP101     -0.2442
     63  CE2       38.3810   85.1350   51.4090 C.ar  101  TRP101      0.0810
     64  CE3       36.1960   84.2980   52.0020 C.ar  101  TRP101      0.0012
     65  CZ2       37.9810   86.4500   51.6490 C.ar  101  TRP101      0.0191
     66  CZ3       35.8030   85.5950   52.2430 C.ar  101  TRP101      0.0001
     67  CH2       36.6860   86.6600   52.0620 C.ar  101  TRP101      0.0015
     68  N         46.5320   77.8580   50.6870 N.3   140  HIS140     -0.1241
     69  CA        45.8640   78.1430   51.9380 C.3   140  HIS140      0.1621
     70  C         44.4200   77.6710   51.9180 C.2   140  HIS140      0.2264
     71  O         43.9370   77.1210   50.9310 O.2   140  HIS140     -0.2867
     72  CB        45.8690   79.6720   52.1130 C.3   140  HIS140      0.0745
     73  CG        45.3580   80.3440   50.8760 C.ar  140  HIS140      0.0817
     74  ND1       44.0040   80.3770   50.5710 N.ar  140  HIS140     -0.2268
     75  CD2       46.0260   80.9680   49.8690 C.ar  140  HIS140      0.1154
     76  CE1       43.8760   81.0160   49.4150 C.ar  140  HIS140      0.1986
     77  NE2       45.0740   81.3840   48.9660 N.ar  140  HIS140     -0.2212
     78  N         40.4250   82.6950   55.7170 N.2   143  PRO143     -0.2584
     79  CA        40.8940   83.6450   56.7070 C.3   143  PRO143      0.1895
     80  C         40.5940   83.1330   58.1050 C.2   143  PRO143      0.2359
     81  O         39.4650   82.7700   58.4270 O.2   143  PRO143     -0.2858
     82  CB        40.1700   84.9660   56.4460 C.2   143  PRO143      0.0071
     83  CG        39.4170   84.8090   55.1360 C.2   143  PRO143      0.0180
     84  CD        39.4940   83.3390   54.7490 C.2   143  PRO143      0.0937
     85  N         55.8280   90.5130   52.2120 N.3   183  PHE183     -0.1241
     86  CA        56.3450   90.4110   50.8620 C.3   183  PHE183      0.1605
     87  C         57.7980   90.8530   50.7980 C.2   183  PHE183      0.2264
     88  O         58.3520   91.0220   49.7140 O.2   183  PHE183     -0.2867
     89  CB        55.4800   91.1710   49.8390 C.3   183  PHE183      0.0534
     90  CG        54.0210   90.7850   49.8920 C.ar  183  PHE183     -0.0203
     91  CD1       53.5810   89.5760   49.3540 C.ar  183  PHE183     -0.0042
     92  CD2       53.0760   91.6210   50.4890 C.ar  183  PHE183     -0.0042
     93  CE1       52.2370   89.2060   49.4110 C.ar  183  PHE183     -0.0003
     94  CE2       51.7280   91.2700   50.5590 C.ar  183  PHE183     -0.0003
     95  CZ        51.3110   90.0550   50.0160 C.ar  183  PHE183     -0.0000
     96  N         48.2920   87.3310   53.8700 N.3   195  TYR195     -0.1227
     97  CA        47.2120   88.1020   54.4520 C.3   195  TYR195      0.1736
     98  C         46.7940   87.4200   55.7490 C.2   195  TYR195      0.2595
     99  O         47.6130   87.2150   56.6430 O.2   195  TYR195     -0.2718
    100  CB        46.0580   88.2370   53.4530 C.3   195  TYR195      0.0548
    101  CG        46.4000   89.0870   52.2490 C.ar  195  TYR195     -0.0200
    102  CD1       46.0910   88.6640   50.9620 C.ar  195  TYR195     -0.0009
    103  CD2       47.0340   90.3130   52.4010 C.ar  195  TYR195     -0.0009
    104  CE1       46.4090   89.4380   49.8610 C.ar  195  TYR195      0.0417
    105  CE2       47.3560   91.0920   51.3070 C.ar  195  TYR195      0.0417
    106  CZ        47.0420   90.6500   50.0400 C.ar  195  TYR195      0.1957
    107  OH        47.3650   91.4240   48.9490 O.3   195  TYR195     -0.2866
    108  N         45.5280   87.0480   55.8620 N.am  196  ASP196     -0.1960
    109  CA        45.0590   86.3470   57.0520 C.3   196  ASP196      0.1840
    110  C         44.6140   84.9250   56.7060 C.2   196  ASP196      0.2621
    111  O         43.9200   84.2740   57.4870 O.2   196  ASP196     -0.2715
    112  CB        43.9240   87.1200   57.7200 C.3   196  ASP196      0.1450
    113  CG        42.7720   87.3810   56.7750 C.2   196  ASP196      0.3671
    114  OD1       42.6660   86.6640   55.7580 O.co2 196  ASP196     -0.2456
    115  OD2       41.9760   88.3020   57.0510 O.co2 196  ASP196     -0.2456
    116  N         45.0250   84.4470   55.5300 N.am  197  LEU197     -0.1977
    117  CA        44.6480   83.1090   55.0700 C.3   197  LEU197      0.1596
    118  C         45.4950   82.0310   55.7200 C.2   197  LEU197      0.2287
    119  O         46.7220   82.0780   55.6590 O.2   197  LEU197     -0.2864
    120  CB        44.7420   83.0290   53.5470 C.3   197  LEU197      0.0297
    121  CG        43.9580   84.0890   52.7710 C.3   197  LEU197      0.0022
    122  CD1       44.6230   84.3830   51.4360 C.3   197  LEU197      0.0001
    123  CD2       42.5160   83.6490   52.5660 C.3   197  LEU197      0.0001
    124  N         41.3350   90.1950   37.7050 N.3   327  HIS327     -0.1226
    125  CA        40.5480   90.4250   38.9010 C.3   327  HIS327      0.1752
    126  C         41.3110   91.0750   40.0450 C.2   327  HIS327      0.2596
    127  O         40.7330   91.3860   41.0830 O.2   327  HIS327     -0.2718
    128  CB        39.8930   89.1120   39.3640 C.3   327  HIS327      0.0759
    129  CG        40.9110   88.0400   39.5660 C.ar  327  HIS327      0.0818
    130  ND1       41.7510   87.6470   38.5380 N.ar  327  HIS327     -0.2268
    131  CD2       41.2280   87.3210   40.6750 C.ar  327  HIS327      0.1154
    132  CE1       42.5450   86.7050   39.0340 C.ar  327  HIS327      0.1986
    133  NE2       42.2590   86.4840   40.3150 N.ar  327  HIS327     -0.2212
    134  N         42.6090   91.2850   39.8610 N.am  328  ASP328     -0.1974
    135  CA        43.4310   91.8920   40.8900 C.3   328  ASP328      0.1709
    136  C         43.9860   93.2500   40.4890 C.2   328  ASP328      0.2293
    137  O         44.7870   93.8430   41.2090 O.2   328  ASP328     -0.2864
    138  CB        44.5710   90.9630   41.3460 C.3   328  ASP328      0.1436
    139  CG        44.1040   89.7400   42.0820 C.2   328  ASP328      0.3671
    140  OD1       43.0550   89.6700   42.7010 O.co2 328  ASP328     -0.2456
    141  OD2       44.9650   88.7600   41.9890 O.co2 328  ASP328     -0.2456
    142  N         39.9630   95.6620   43.3190 N.3   371  ASP371     -0.1225
    143  CA        39.0290   94.7830   43.9990 C.3   371  ASP371      0.1790
    144  C         38.1910   95.5260   45.0330 C.2   371  ASP371      0.2439
    145  O         38.7260   96.2710   45.8530 O.2   371  ASP371     -0.2733
    146  CB        39.8450   93.6510   44.6510 C.3   371  ASP371      0.1423
    147  CG        39.0280   92.6510   45.4100 C.2   371  ASP371      0.3668
    148  OD1       37.8230   92.5430   45.2860 O.co2 371  ASP371     -0.2456
    149  OD2       39.7620   91.9120   46.2040 O.co2 371  ASP371     -0.2456
    150  N         36.8690   95.3730   44.9900 N.am  372  PRO372     -0.2729
    151  CA        36.1560   94.4790   44.0960 C.3   372  PRO372      0.1401
    152  C         35.4810   95.2070   42.9440 C.2   372  PRO372      0.2269
    153  O         34.5920   94.6550   42.2960 O.2   372  PRO372     -0.2865
    154  CB        35.0140   93.9440   44.9640 C.3   372  PRO372      0.0296
    155  CG        34.7290   95.0160   46.0060 C.3   372  PRO372      0.0237
    156  CD        35.9670   95.8980   46.0510 C.3   372  PRO372      0.0939
    157  N         35.1830   93.5530   39.6030 N.3   375  ARG375     -0.1245
    158  CA        34.4800   92.2890   39.5030 C.3   375  ARG375      0.1563
    159  C         32.9740   92.4480   39.4250 C.2   375  ARG375      0.2260
    160  O         32.2260   91.6670   40.0100 O.2   375  ARG375     -0.2867
    161  CB        34.8590   91.3340   40.6250 C.3   375  ARG375      0.0307
    162  CG        36.3660   91.2580   40.8260 C.3   375  ARG375      0.0489
    163  CD        36.7510   90.8320   42.2350 C.3   375  ARG375      0.2205
    164  NE        38.1850   90.6010   42.3850 N.pl3 375  ARG375     -0.0865
    165  CZ        38.7070   89.8680   43.3640 C.cat 375  ARG375      0.5346
    166  NH1       37.9430   89.2790   44.2780 N.pl3 375  ARG375      0.1354
    167  NH2       40.0250   89.7120   43.4300 N.pl3 375  ARG375      0.1354
@<TRIPOS>BOND
     1   124   125    1
     2   130   132   ar
     3   130   129   ar
     4   125   128    1
     5   125   126    1
     6   132   133   ar
     7   128   129    1
     8   159   158    1
     9   159   160    2
    10   158   157    1
    11   158   161    1
    12   129   131   ar
    13   134   126   am
    14   134   135    1
    15   126   127    2
    16   133   131   ar
    17   136   135    1
    18   136   137    2
    19   161   162    1
    20   162   163    1
    21   135   138    1
    22    53    52    1
    23   138   139    1
    24   141   139   ar
    25   139   140   ar
    26   163   164    1
    27   153   152    2
    28   164   165    2
    29    52    51   ar
    30    52    50   ar
    31   152   151    1
    32    51    49   ar
    33    50    48   ar
    34   142   143    1
    35   165   167    1
    36   165   166    1
    37    35    34    2
    38    23    22    2
    39    28    26   ar
    40    28    30   ar
    41   143   146    1
    42   143   144    1
    43   151   154    1
    44   151   150    1
    45    26    25   ar
    46    34    33    1
    47    49    47   ar
    48    48    47   ar
    49    33    36    1
    50    33    32    1
    51   146   147    1
    52    31    30    1
    53    36    37    1
    54   154   155    1
    55   150   144   am
    56   150   156    1
    57    22    32   am
    58    22    21    1
    59   144   145    2
    60    30    29   ar
    61    47    46    1
    62   148   147   ar
    63   147   149   ar
    64    25    24    1
    65    25    27   ar
    66    24    21    1
    67   155   156    1
    68    21    20    1
    69    37    38   ar
    70    37    39   ar
    71    29    27   ar
    72    42    43    1
    73    46    43    1
    74    43    44    1
    75    38    40   ar
    76    39    41   ar
    77     1     2    1
    78     2     3    1
    79     2     5    1
    80    44    45    2
    81    44    54   am
    82    40    41   ar
    83     3     4    2
    84   107   106    1
    85    77    76   ar
    86    77    75   ar
    87     6     5    1
    88     6     7    1
    89    54    55    1
    90    91    93   ar
    91    91    90   ar
    92    93    95   ar
    93    76    74   ar
    94    11     9    1
    95    88    87    2
    96     9    10    1
    97     9     8    2
    98    89    90    1
    99    89    86    1
   100   104   106   ar
   101   104   102   ar
   102    75    73   ar
   103    90    92   ar
   104     8     7    1
   105    95    94   ar
   106   106   105   ar
   107    55    56    1
   108    55    58    1
   109    92    94   ar
   110    74    73   ar
   111    56    57    2
   112    68    69    1
   113    87    86    1
   114    86    85    1
   115    73    72    1
   116    60    62   ar
   117    60    59   ar
   118    71    70    2
   119   102   101   ar
   120    62    63   ar
   121    59    58    1
   122    59    61   ar
   123   105   103   ar
   124    63    61   ar
   125    63    65   ar
   126   122   121    1
   127    61    64   ar
   128    65    67   ar
   129    18    17    2
   130    70    69    1
   131    69    72    1
   132    64    66   ar
   133    67    66   ar
   134   101   103   ar
   135   101   100    1
   136   123   121    1
   137    17    16    1
   138    17    19   am
   139    14    13    1
   140    14    15    2
   141   121   120    1
   142    13    16    1
   143    13    12    1
   144   100    97    1
   145   120   117    1
   146    96    97    1
   147    97    98    1
   148    84    83    1
   149    84    78    2
   150   117   116    1
   151   117   118    1
   152    83    82    2
   153   116   110   am
   154   119   118    2
   155    78    79    1
   156    98   108   am
   157    98    99    2
   158   114   113   ar
   159   108   109    1
   160    82    79    1
   161   110   109    1
   162   110   111    2
   163    79    80    1
   164   113   115   ar
   165   113   112    1
   166   109   112    1
   167    80    81    2
