@<TRIPOS>MOLECULE
tmp/1dubA00.pdb
 214 204 0 0 0
SMALL
GASTEIGER

@<TRIPOS>ATOM
      1  N         46.0500  106.7250  179.0280 N.3    24  ARG24      -0.1231
      2  CA        46.6700  106.5590  180.3280 C.3    24  ARG24       0.1679
      3  C         47.3940  107.8990  180.5530 C.2    24  ARG24       0.2434
      4  O         48.5750  107.9420  180.8770 O.2    24  ARG24      -0.2733
      5  CB        47.6370  105.3770  180.2990 C.3    24  ARG24       0.0321
      6  CG        48.3300  105.1500  181.6210 C.3    24  ARG24       0.0489
      7  CD        49.4090  104.1240  181.5300 C.3    24  ARG24       0.2205
      8  NE        49.8480  103.6830  182.8460 N.pl3  24  ARG24      -0.0865
      9  CZ        51.1100  103.4480  183.1840 C.cat  24  ARG24       0.5346
     10  NH1       52.0890  103.6270  182.3130 N.pl3  24  ARG24       0.1354
     11  NH2       51.3890  102.9480  184.3740 N.pl3  24  ARG24       0.1354
     12  N         46.6380  109.0110  180.4830 N.am   25  PRO25      -0.2718
     13  CA        47.2000  110.3560  180.6540 C.3    25  PRO25       0.1535
     14  C         47.9750  110.6210  181.9340 C.2    25  PRO25       0.2598
     15  O         48.8890  111.4360  181.9510 O.2    25  PRO25      -0.2715
     16  CB        45.9730  111.2650  180.5030 C.3    25  PRO25       0.0310
     17  CG        44.8800  110.4420  181.0450 C.3    25  PRO25       0.0237
     18  CD        45.1610  109.0580  180.5010 C.3    25  PRO25       0.0939
     19  N         47.6420  109.9040  182.9970 N.am   26  LYS26      -0.1964
     20  CA        48.3160  110.1220  184.2690 C.3    26  LYS26       0.1728
     21  C         49.7830  109.7510  184.2440 C.2    26  LYS26       0.2616
     22  O         50.5650  110.2660  185.0290 O.2    26  LYS26      -0.2715
     23  CB        47.5740  109.4140  185.3880 C.3    26  LYS26       0.0311
     24  CG        46.2030  110.0120  185.6230 C.3    26  LYS26       0.0038
     25  CD        45.5340  109.3870  186.8180 C.3    26  LYS26       0.0206
     26  CE        44.2840  110.1590  187.2080 C.3    26  LYS26       0.1093
     27  NZ        43.6300  109.5860  188.4200 N.3    26  LYS26      -0.1314
     28  N         50.1380  108.8390  183.3450 N.am   27  ALA27      -0.1963
     29  CA        51.5150  108.4070  183.1720 C.3    27  ALA27       0.1728
     30  C         51.9510  108.8210  181.7850 C.2    27  ALA27       0.2616
     31  O         52.8090  108.1840  181.1850 O.2    27  ALA27      -0.2715
     32  CB        51.6240  106.9060  183.3200 C.3    27  ALA27       0.0334
     33  N         51.3480  109.8880  181.2760 N.am   28  LEU28      -0.1977
     34  CA        51.6340  110.3900  179.9400 C.3    28  LEU28       0.1596
     35  C         51.7180  109.2390  178.9400 C.2    28  LEU28       0.2287
     36  O         52.6390  109.1660  178.1360 O.2    28  LEU28      -0.2864
     37  CB        52.9350  111.1610  179.9290 C.3    28  LEU28       0.0297
     38  CG        52.9650  112.4720  180.6740 C.3    28  LEU28       0.0022
     39  CD1       54.3550  113.0560  180.4920 C.3    28  LEU28       0.0001
     40  CD2       51.9470  113.4050  180.1490 C.3    28  LEU28       0.0001
     41  N         52.6830  106.1670  179.2470 N.3    30  ALA30      -0.1245
     42  CA        53.8900  105.3350  179.3360 C.3    30  ALA30       0.1562
     43  C         53.4530  103.9350  178.9940 C.2    30  ALA30       0.2260
     44  O         52.4360  103.4600  179.4700 O.2    30  ALA30      -0.2867
     45  CB        54.5070  105.3950  180.7330 C.3    30  ALA30       0.0290
     46  N         48.4830  116.0970  175.0260 N.3    62  LYS62      -0.1245
     47  CA        49.7530  116.3820  175.6890 C.3    62  LYS62       0.1561
     48  C         50.8370  115.3720  175.3780 C.2    62  LYS62       0.2260
     49  O         52.0250  115.6930  175.3420 O.2    62  LYS62      -0.2867
     50  CB        49.5580  116.4450  177.2040 C.3    62  LYS62       0.0271
     51  CG        50.7200  117.1320  177.9270 C.3    62  LYS62       0.0035
     52  CD        50.6360  117.0560  179.4600 C.3    62  LYS62       0.0206
     53  CE        51.7810  117.8270  180.1350 C.3    62  LYS62       0.1093
     54  NZ        51.7760  117.7580  181.6340 N.3    62  LYS62      -0.1314
     55  N         55.0300  108.8150  176.4390 N.3    66  ALA66      -0.1231
     56  CA        56.2880  109.3270  176.9880 C.3    66  ALA66       0.1694
     57  C         57.4050  108.2970  177.1080 C.2    66  ALA66       0.2593
     58  O         58.4790  108.5930  177.6080 O.2    66  ALA66      -0.2718
     59  CB        56.0490  109.9890  178.3080 C.3    66  ALA66       0.0304
     60  N         57.1410  107.0700  176.7020 N.am   67  GLY67      -0.1942
     61  CA        58.1790  106.0770  176.7420 C.3    67  GLY67       0.2014
     62  C         57.6970  104.8030  177.3260 C.2    67  GLY67       0.2639
     63  O         56.5040  104.6490  177.5040 O.2    67  GLY67      -0.2714
     64  N         58.6030  103.8670  177.5600 N.am   68  ALA68      -0.1963
     65  CA        58.2700  102.5960  178.1890 C.3    68  ALA68       0.1728
     66  C         58.0520  102.9440  179.6460 C.2    68  ALA68       0.2616
     67  O         58.4180  104.0440  180.0650 O.2    68  ALA68      -0.2715
     68  CB        59.4340  101.6620  178.0700 C.3    68  ALA68       0.0334
     69  N         57.4690  102.0370  180.4240 N.am   69  ASP69      -0.1957
     70  CA        57.2410  102.3050  181.8480 C.3    69  ASP69       0.1840
     71  C         58.5510  102.1040  182.6440 C.2    69  ASP69       0.2622
     72  O         58.9860  100.9700  182.8770 O.2    69  ASP69      -0.2715
     73  CB        56.1380  101.3930  182.3870 C.3    69  ASP69       0.1450
     74  CG        55.5180  101.9090  183.6620 C.2    69  ASP69       0.3671
     75  OD1       56.2500  102.3650  184.5540 O.co2  69  ASP69      -0.2456
     76  OD2       54.2800  101.8520  183.7740 O.co2  69  ASP69      -0.2456
     77  N         59.1440  103.2130  183.0870 N.am   70  ILE70      -0.1963
     78  CA        60.3970  103.1760  183.8270 C.3    70  ILE70       0.1727
     79  C         60.2530  102.4660  185.1390 C.2    70  ILE70       0.2616
     80  O         61.1180  101.7030  185.5260 O.2    70  ILE70      -0.2715
     81  CB        60.9480  104.5820  184.0270 C.3    70  ILE70       0.0290
     82  CG1       61.1170  105.2420  182.6610 C.3    70  ILE70       0.0022
     83  CG2       62.2710  104.5220  184.7500 C.3    70  ILE70       0.0023
     84  CD1       61.2990  106.7240  182.6860 C.3    70  ILE70       0.0001
     85  N         59.1020  102.6330  185.7630 N.am   71  LYS71      -0.1977
     86  CA        58.8320  102.0000  187.0300 C.3    71  LYS71       0.1596
     87  C         58.8190  100.5020  186.8850 C.2    71  LYS71       0.2287
     88  O         59.3300   99.7840  187.7320 O.2    71  LYS71      -0.2864
     89  CB        57.5230  102.5300  187.5750 C.3    71  LYS71       0.0298
     90  CG        57.5590  104.0390  187.6470 C.3    71  LYS71       0.0038
     91  CD        56.4360  104.6160  188.4380 C.3    71  LYS71       0.0206
     92  CE        56.5500  106.1200  188.4210 C.3    71  LYS71       0.1093
     93  NZ        55.4050  106.7740  189.0960 N.3    71  LYS71      -0.1314
     94  N         60.5540   98.8390  184.6220 N.3    73  MET73      -0.1245
     95  CA        61.8480   98.3190  184.2060 C.3    73  MET73       0.1570
     96  C         62.8620   98.4270  185.2980 C.2    73  MET73       0.2261
     97  O         63.8030   97.6520  185.3550 O.2    73  MET73      -0.2867
     98  CB        62.3630   99.0790  183.0050 C.3    73  MET73       0.0387
     99  CG        61.4560   99.0060  181.8360 C.3    73  MET73       0.0595
    100  SD        62.3300   99.4140  180.3730 S.3    73  MET73      -0.1393
    101  CE        62.1940  101.1760  180.4100 C.3    73  MET73       0.0692
    102  N         60.3440   93.1290  176.4500 N.3    87  LEU87      -0.1245
    103  CA        59.8910   93.9740  175.3470 C.3    87  LEU87       0.1561
    104  C         59.5200   93.2080  174.0690 C.2    87  LEU87       0.2260
    105  O         59.3540   93.8100  172.9940 O.2    87  LEU87      -0.2867
    106  CB        60.9320   95.0620  175.0160 C.3    87  LEU87       0.0270
    107  CG        60.6880   96.5030  175.4740 C.3    87  LEU87       0.0019
    108  CD1       61.0980   96.7210  176.8770 C.3    87  LEU87       0.0001
    109  CD2       61.4690   97.4010  174.6060 C.3    87  LEU87       0.0001
    110  N         56.3020   94.2560  172.1780 N.3    90  TRP90      -0.1241
    111  CA        56.3920   95.6570  171.7740 C.3    90  TRP90       0.1605
    112  C         56.2690   95.9330  170.3010 C.2    90  TRP90       0.2264
    113  O         55.7120   96.9610  169.9130 O.2    90  TRP90      -0.2867
    114  CB        57.6920   96.2590  172.2600 C.3    90  TRP90       0.0550
    115  CG        57.5120   96.9730  173.5210 C.ar   90  TRP90       0.0003
    116  CD1       56.8820   96.5090  174.6360 C.ar   90  TRP90       0.0946
    117  CD2       57.9110   98.3190  173.8130 C.ar   90  TRP90       0.0152
    118  NE1       56.8610   97.4820  175.6060 N.ar   90  TRP90      -0.2442
    119  CE2       57.4950   98.6020  175.1250 C.ar   90  TRP90       0.0810
    120  CE3       58.5920   99.3060  173.0930 C.ar   90  TRP90       0.0012
    121  CZ2       57.7300   99.8400  175.7310 C.ar   90  TRP90       0.0191
    122  CZ3       58.8320  100.5340  173.6980 C.ar   90  TRP90       0.0001
    123  CH2       58.4050  100.7890  175.0000 C.ar   90  TRP90       0.0015
    124  N         54.1750  114.8610  173.3500 N.3   107  TYR107     -0.1241
    125  CA        55.3630  114.0360  173.5440 C.3   107  TYR107      0.1605
    126  C         55.2900  112.6760  172.9310 C.2   107  TYR107      0.2264
    127  O         54.3360  111.9350  173.1810 O.2   107  TYR107     -0.2867
    128  CB        55.6390  113.8020  175.0370 C.3   107  TYR107      0.0534
    129  CG        56.0320  115.0040  175.8190 C.ar  107  TYR107     -0.0201
    130  CD1       57.2210  115.6730  175.5490 C.ar  107  TYR107     -0.0009
    131  CD2       55.1920  115.5110  176.8090 C.ar  107  TYR107     -0.0009
    132  CE1       57.5650  116.8180  176.2280 C.ar  107  TYR107      0.0417
    133  CE2       55.5260  116.6680  177.5080 C.ar  107  TYR107      0.0417
    134  CZ        56.7170  117.3170  177.2120 C.ar  107  TYR107      0.1957
    135  OH        57.0660  118.4440  177.9060 O.3   107  TYR107     -0.2866
    136  N         58.2260  110.2880  173.1350 N.3   109  LEU109     -0.1231
    137  CA        59.5790  110.0490  173.5940 C.3   109  LEU109      0.1693
    138  C         59.8560  108.6190  173.9060 C.2   109  LEU109      0.2593
    139  O         58.9500  107.8660  174.2200 O.2   109  LEU109     -0.2718
    140  CB        59.8810  110.8870  174.8390 C.3   109  LEU109      0.0284
    141  CG        59.3610  112.3280  174.8900 C.3   109  LEU109      0.0019
    142  CD1       59.6640  112.9270  176.2370 C.3   109  LEU109      0.0001
    143  CD2       59.9730  113.1730  173.8150 C.3   109  LEU109      0.0001
    144  N         61.1170  108.2280  173.7780 N.am  110  GLY110     -0.1942
    145  CA        61.5030  106.8670  174.0930 C.3   110  GLY110      0.2014
    146  C         60.6480  105.8400  173.3850 C.2   110  GLY110      0.2639
    147  O         60.4440  105.9150  172.1650 O.2   110  GLY110     -0.2714
    148  N         60.1130  104.8990  174.1390 N.am  111  GLY111     -0.1954
    149  CA        59.2660  103.8810  173.5470 C.3   111  GLY111      0.1869
    150  C         58.1040  104.4730  172.7620 C.2   111  GLY111      0.2309
    151  O         57.5610  103.8230  171.8870 O.2   111  GLY111     -0.2863
    152  N         59.4910  105.3940  169.3140 N.3   114  GLU114     -0.1245
    153  CA        59.6710  104.1440  168.6290 C.3   114  GLU114      0.1567
    154  C         58.3640  103.5630  168.1600 C.2   114  GLU114      0.2260
    155  O         58.3060  102.9870  167.0860 O.2   114  GLU114     -0.2867
    156  CB        60.3870  103.1570  169.5260 C.3   114  GLU114      0.0388
    157  CG        61.7790  103.6110  169.9260 C.3   114  GLU114      0.1160
    158  CD        62.3950  102.6500  170.9080 C.2   114  GLU114      0.3649
    159  OE1       61.6500  102.1530  171.7660 O.co2 114  GLU114     -0.2457
    160  OE2       63.6080  102.3630  170.8100 O.co2 114  GLU114     -0.2457
    161  N         65.1180  109.8970  175.0040 N.3   133  PRO133     -0.2102
    162  CA        65.7610  110.2120  176.2950 C.3   133  PRO133      0.1504
    163  C         66.3040  109.0140  177.0630 C.2   133  PRO133      0.2575
    164  O         66.7620  109.1700  178.1820 O.2   133  PRO133     -0.2718
    165  CB        64.6360  110.8890  177.0750 C.3   133  PRO133      0.0282
    166  CG        63.4410  110.1030  176.6210 C.3   133  PRO133      0.0208
    167  CD        63.6470  109.9730  175.1240 C.3   133  PRO133      0.0893
    168  N         66.3290  107.8440  176.4460 N.am  134  GLU134     -0.1980
    169  CA        66.8100  106.6420  177.1010 C.3   134  GLU134      0.1602
    170  C         68.2000  106.7820  177.7400 C.2   134  GLU134      0.2287
    171  O         68.4420  106.2320  178.8150 O.2   134  GLU134     -0.2864
    172  CB        66.8240  105.4830  176.1210 C.3   134  GLU134      0.0415
    173  CG        65.4610  104.8750  175.8070 C.3   134  GLU134      0.1163
    174  CD        64.7550  105.4890  174.5950 C.2   134  GLU134      0.3649
    175  OE1       65.1330  106.5900  174.1440 O.co2 134  GLU134     -0.2457
    176  OE2       63.8110  104.8510  174.0940 O.co2 134  GLU134     -0.2457
    177  N         68.5790  107.8730  181.2300 N.3   137  LEU137     -0.1245
    178  CA        68.1860  106.8640  182.2070 C.3   137  LEU137      0.1561
    179  C         69.2110  105.7870  182.3120 C.2   137  LEU137      0.2260
    180  O         68.9370  104.7390  182.9010 O.2   137  LEU137     -0.2867
    181  CB        66.8860  106.1780  181.8010 C.3   137  LEU137      0.0270
    182  CG        65.6250  107.0240  181.5620 C.3   137  LEU137      0.0019
    183  CD1       64.5080  106.0470  181.2780 C.3   137  LEU137      0.0001
    184  CD2       65.2770  107.8890  182.7450 C.3   137  LEU137      0.0001
    185  N         70.2740  103.9700  179.8210 N.3   139  THR139     -0.1203
    186  CA        70.0020  102.8600  178.8990 C.3   139  THR139      0.1994
    187  C         69.9750  103.4360  177.4720 C.2   139  THR139      0.2617
    188  O         70.2720  104.6330  177.2750 O.2   139  THR139     -0.2717
    189  CB        68.6640  102.1090  179.2470 C.3   139  THR139      0.1784
    190  OG1       68.6110  100.8490  178.5470 O.3   139  THR139     -0.2211
    191  CG2       67.3990  102.9640  178.9110 C.3   139  THR139      0.0376
    192  N         69.7180  102.5770  176.4790 N.am  140  ILE140     -0.1979
    193  CA        69.6100  103.0250  175.0920 C.3   140  ILE140      0.1595
    194  C         68.2050  102.6620  174.5570 C.2   140  ILE140      0.2287
    195  O         67.4150  102.0110  175.2490 O.2   140  ILE140     -0.2864
    196  CB        70.6840  102.4110  174.1530 C.3   140  ILE140      0.0276
    197  CG1       70.3510  100.9700  173.8410 C.3   140  ILE140      0.0022
    198  CG2       72.0780  102.4690  174.7610 C.3   140  ILE140      0.0022
    199  CD1       71.1970  100.4140  172.8010 C.3   140  ILE140      0.0001
    200  N         65.3640  100.6880  172.9560 N.3   142  GLY142     -0.1225
    201  CA        65.2540   99.2420  172.8030 C.3   142  GLY142      0.1811
    202  C         64.1650   98.6780  171.9090 C.2   142  GLY142      0.2280
    203  O         63.9090   97.4830  171.9330 O.2   142  GLY142     -0.2866
    204  N         65.1610  116.6510  172.5240 N.3   167  ARG167     -0.1245
    205  CA        63.9430  116.5320  171.7450 C.3   167  ARG167      0.1563
    206  C         63.9950  117.4110  170.5110 C.2   167  ARG167      0.2260
    207  O         64.6760  118.4450  170.4940 O.2   167  ARG167     -0.2867
    208  CB        62.7340  116.9860  172.5630 C.3   167  ARG167      0.0307
    209  CG        62.3160  116.0870  173.7050 C.3   167  ARG167      0.0489
    210  CD        61.0530  116.6540  174.3740 C.3   167  ARG167      0.2205
    211  NE        61.2190  116.7300  175.8160 N.pl3 167  ARG167     -0.0865
    212  CZ        61.3810  117.8590  176.4890 C.cat 167  ARG167      0.5346
    213  NH1       61.3810  119.0160  175.8680 N.pl3 167  ARG167      0.1354
    214  NH2       61.6250  117.8200  177.7720 N.pl3 167  ARG167      0.1354
@<TRIPOS>BOND
     1   155   154    2
     2   154   153    1
     3   153   152    1
     4   153   156    1
     5   156   157    1
     6   113   112    2
     7   157   158    1
     8   112   111    1
     9   207   206    2
    10   206   205    1
    11   160   158   ar
    12   158   159   ar
    13   205   204    1
    14   205   208    1
    15   111   110    1
    16   111   114    1
    17   151   150    2
    18   202   203    2
    19   202   201    1
    20   147   146    2
    21   114   115    1
    22   208   209    1
    23   150   149    1
    24   199   197    1
    25   201   200    1
    26   126   127    2
    27   126   125    1
    28   105   104    2
    29   120   122   ar
    30   120   117   ar
    31   136   137    1
    32   124   125    1
    33   146   145    1
    34   146   148   am
    35   115   117   ar
    36   115   116   ar
    37   125   128    1
    38   149   148    1
    39   137   138    1
    40   137   140    1
    41   122   123   ar
    42   209   210    1
    43   144   138   am
    44   144   145    1
    45   117   119   ar
    46   143   141    1
    47   197   196    1
    48   138   139    2
    49   104   103    1
    50   176   174   ar
    51   175   174   ar
    52   196   198    1
    53   196   193    1
    54   210   211    1
    55   194   193    1
    56   194   195    2
    57   174   173    1
    58   109   107    1
    59   116   118   ar
    60   140   141    1
    61   141   142    1
    62   123   121   ar
    63   161   167    1
    64   161   162    1
    65   106   103    1
    66   106   107    1
    67    46    47    1
    68   128   129    1
    69   193   192    1
    70   167   166    1
    71   119   118   ar
    72   119   121   ar
    73    49    48    2
    74   103   102    1
    75    48    47    1
    76   107   108    1
    77   130   129   ar
    78   130   132   ar
    79    47    50    1
    80   173   172    1
    81   211   212    2
    82   129   131   ar
    83   213   212    1
    84   172   169    1
    85   132   134   ar
    86   162   163    1
    87   162   165    1
    88    55    56    1
    89   168   163   am
    90   168   169    1
    91   192   187   am
    92   212   214    1
    93   166   165    1
    94    60    61    1
    95    60    57   am
    96    61    62    1
    97   131   133   ar
    98    56    57    1
    99    56    59    1
   100   163   164    2
   101   169   170    1
   102    57    58    2
   103    50    51    1
   104   134   133   ar
   105   134   135    1
   106   188   187    2
   107    62    63    2
   108    62    64   am
   109   187   186    1
   110    64    65    1
   111   170   171    2
   112    51    52    1
   113    68    65    1
   114    36    35    2
   115    65    66    1
   116   190   189    1
   117   186   189    1
   118   186   185    1
   119   191   189    1
   120    35    34    1
   121    43    42    1
   122    43    44    2
   123     1     2    1
   124    41    42    1
   125    42    45    1
   126    52    53    1
   127    66    67    2
   128    66    69   am
   129    37    34    1
   130    37    38    1
   131    34    33    1
   132    53    54    1
   133    40    38    1
   134     5     2    1
   135     5     6    1
   136     2     3    1
   137   100   101    1
   138   100    99    1
   139    69    70    1
   140    12    18    1
   141    12     3   am
   142    12    13    1
   143    39    38    1
   144    18    17    1
   145    16    13    1
   146    16    17    1
   147     3     4    2
   148    13    14    1
   149    31    30    2
   150   177   178    1
   151    33    30   am
   152   183   182    1
   153     7     6    1
   154     7     8    1
   155   182   181    1
   156   182   184    1
   157    30    29    1
   158   181   178    1
   159    99    98    1
   160    70    73    1
   161    70    71    1
   162    14    15    2
   163    14    19   am
   164   178   179    1
   165   179   180    2
   166    10     9    1
   167    73    74    1
   168    71    72    2
   169    71    77   am
   170    82    84    1
   171    82    81    1
   172     8     9    2
   173    19    20    1
   174    98    95    1
   175    77    78    1
   176    29    32    1
   177    29    28    1
   178     9    11    1
   179    28    21   am
   180    74    76   ar
   181    74    75   ar
   182    78    81    1
   183    78    79    1
   184    81    83    1
   185    95    94    1
   186    95    96    1
   187    21    20    1
   188    21    22    2
   189    20    23    1
   190    79    80    2
   191    79    85   am
   192    96    97    2
   193    23    24    1
   194    24    25    1
   195    85    86    1
   196    25    26    1
   197    87    86    1
   198    87    88    2
   199    86    89    1
   200    26    27    1
   201    89    90    1
   202    90    91    1
   203    92    91    1
   204    92    93    1
