@<TRIPOS>MOLECULE
tmp/1ducA00.pdb
 91 88 0 0 0
SMALL
GASTEIGER

@<TRIPOS>ATOM
      1  N         22.4170   30.0620   33.8010 N.3    53  VAL53      -0.1245
      2  CA        21.6280   28.8410   34.0790 C.3    53  VAL53       0.1561
      3  C         22.0910   27.7940   33.0610 C.2    53  VAL53       0.2260
      4  O         21.9370   28.0470   31.8760 O.2    53  VAL53      -0.2867
      5  CB        20.1370   29.1200   33.8590 C.3    53  VAL53       0.0252
      6  CG1       19.2900   27.8640   34.2290 C.3    53  VAL53       0.0019
      7  CG2       19.7420   30.2160   34.8950 C.3    53  VAL53       0.0019
      8  N         18.7000   25.8560   27.2640 N.3    67  ASN67      -0.1225
      9  CA        19.1590   26.7930   26.2520 C.3    67  ASN67       0.1785
     10  C         18.8680   28.2240   26.7210 C.2    67  ASN67       0.2598
     11  O         18.2010   28.4250   27.7480 O.2    67  ASN67      -0.2718
     12  CB        18.2280   26.5510   25.0320 C.3    67  ASN67       0.1169
     13  CG        18.8860   27.1340   23.7750 C.2    67  ASN67       0.2627
     14  OD1       19.9870   27.7010   23.8640 O.2    67  ASN67      -0.2716
     15  ND2       18.1770   27.0050   22.6630 N.am   67  ASN67      -0.0877
     16  N         19.5860   29.1820   26.1740 N.am   68  GLY68      -0.1942
     17  CA        19.4180   30.5960   26.5950 C.3    68  GLY68       0.2014
     18  C         20.2790   30.6840   27.8890 C.2    68  GLY68       0.2639
     19  O         21.4850   30.5780   27.8580 O.2    68  GLY68      -0.2714
     20  N         19.6810   30.9480   29.0160 N.am   69  GLY69      -0.1939
     21  CA        20.3230   30.8350   30.3210 C.3    69  GLY69       0.2014
     22  C         21.1110   32.0790   30.7800 C.2    69  GLY69       0.2639
     23  O         21.7060   32.0030   31.8840 O.2    69  GLY69      -0.2714
     24  N         21.0740   33.2140   30.0950 N.am   70  ILE70      -0.1963
     25  CA        21.9300   34.3260   30.5430 C.3    70  ILE70       0.1727
     26  C         21.0180   35.2780   31.3460 C.2    70  ILE70       0.2616
     27  O         20.0410   35.7750   30.7870 O.2    70  ILE70      -0.2715
     28  CB        22.5960   35.0600   29.3690 C.3    70  ILE70       0.0290
     29  CG1       23.5060   34.1290   28.5200 C.3    70  ILE70       0.0022
     30  CG2       23.3010   36.3090   29.9340 C.3    70  ILE70       0.0023
     31  CD1       24.6420   33.4780   29.3520 C.3    70  ILE70       0.0001
     32  N         21.2820   35.4480   32.6260 N.am   71  ILE71      -0.1963
     33  CA        20.4030   36.2810   33.4970 C.3    71  ILE71       0.1727
     34  C         21.1000   37.6260   33.7480 C.2    71  ILE71       0.2616
     35  O         22.1600   37.6430   34.3950 O.2    71  ILE71      -0.2715
     36  CB        20.1110   35.6280   34.8410 C.3    71  ILE71       0.0290
     37  CG1       19.7070   34.1430   34.7490 C.3    71  ILE71       0.0022
     38  CG2       18.9820   36.4220   35.5780 C.3    71  ILE71       0.0023
     39  CD1       18.4990   33.9240   33.8120 C.3    71  ILE71       0.0001
     40  N         20.6270   38.7070   33.1060 N.am   72  ASP72      -0.1971
     41  CA        21.3480   39.9460   33.1450 C.3    72  ASP72       0.1709
     42  C         21.2290   40.5900   34.5500 C.2    72  ASP72       0.2293
     43  O         20.2490   40.3960   35.2450 O.2    72  ASP72      -0.2864
     44  CB        20.7270   41.0080   32.1660 C.3    72  ASP72       0.1436
     45  CG        20.8340   40.4530   30.7480 C.2    72  ASP72       0.3671
     46  OD1       21.9330   40.4240   30.1780 O.co2  72  ASP72      -0.2456
     47  OD2       19.8280   39.9930   30.1660 O.co2  72  ASP72      -0.2456
     48  N         17.9950   42.2580   35.3280 N.3    75  TYR75      -0.1241
     49  CA        16.6480   41.6030   35.2860 C.3    75  TYR75       0.1605
     50  C         16.0100   41.5670   36.6560 C.2    75  TYR75       0.2264
     51  O         16.6520   41.0680   37.5960 O.2    75  TYR75      -0.2867
     52  CB        16.9350   40.1420   34.8790 C.3    75  TYR75       0.0534
     53  CG        15.7060   39.2890   34.6760 C.ar   75  TYR75      -0.0201
     54  CD1       14.7340   39.6210   33.7270 C.ar   75  TYR75      -0.0009
     55  CD2       15.5260   38.1620   35.4530 C.ar   75  TYR75      -0.0009
     56  CE1       13.6250   38.8080   33.5070 C.ar   75  TYR75       0.0417
     57  CE2       14.4290   37.3320   35.2600 C.ar   75  TYR75       0.0417
     58  CZ        13.4920   37.6820   34.2950 C.ar   75  TYR75       0.1957
     59  OH        12.4180   36.8420   34.0980 O.3    75  TYR75      -0.2866
     60  N         13.3770   33.7770   37.3160 N.3    79  ILE79      -0.1231
     61  CA        14.1410   33.0170   36.2530 C.3    79  ILE79       0.1692
     62  C         13.2320   32.0280   35.5840 C.2    79  ILE79       0.2592
     63  O         12.5970   31.2110   36.2460 O.2    79  ILE79      -0.2718
     64  CB        15.2710   32.2910   37.0260 C.3    79  ILE79       0.0266
     65  CG1       16.3070   33.4040   37.3800 C.3    79  ILE79       0.0019
     66  CG2       15.8960   31.2190   36.1200 C.3    79  ILE79       0.0020
     67  CD1       17.4900   32.9500   38.2200 C.3    79  ILE79       0.0001
     68  N         13.2540   31.9320   34.2620 N.am   80  GLN80      -0.1966
     69  CA        12.5710   30.9190   33.5240 C.3    80  GLN80       0.1733
     70  C         13.6480   29.9640   32.9640 C.2    80  GLN80       0.2616
     71  O         14.7300   30.4290   32.5850 O.2    80  GLN80      -0.2715
     72  CB        11.8740   31.5310   32.3040 C.3    80  GLN80       0.0408
     73  CG        10.8520   32.6230   32.6330 C.3    80  GLN80       0.0908
     74  CD        10.1860   33.0730   31.3230 C.2    80  GLN80       0.2608
     75  OE1       10.7750   33.2750   30.2470 O.2    80  GLN80      -0.2717
     76  NE2        8.8640   33.2400   31.3510 N.am   80  GLN80      -0.0878
     77  N         13.3120   28.6650   32.9560 N.am   81  VAL81      -0.1963
     78  CA        14.3630   27.7330   32.4240 C.3    81  VAL81       0.1727
     79  C         13.8950   27.2010   31.1000 C.2    81  VAL81       0.2612
     80  O         12.8190   26.5420   31.0540 O.2    81  VAL81      -0.2715
     81  CB        14.6000   26.5740   33.4120 C.3    81  VAL81       0.0290
     82  CG1       15.8040   25.7580   32.8480 C.3    81  VAL81       0.0023
     83  CG2       15.0520   27.1880   34.7450 C.3    81  VAL81       0.0023
     84  N         14.6620   27.3910   30.0200 N.am   82  ILE82      -0.2031
     85  CA        14.1550   26.9830   28.7070 C.3    82  ILE82       0.1282
     86  C         14.6870   25.5870   28.4000 C.3    82  ILE82       0.2035
     87  O         15.9220   25.5220   28.3550 O.3    82  ILE82      -0.2185
     88  CB        14.6340   28.0160   27.6460 C.3    82  ILE82       0.0226
     89  CG1       14.0800   29.3840   28.0210 C.3    82  ILE82       0.0018
     90  CG2       14.1490   27.5640   26.2280 C.3    82  ILE82       0.0018
     91  CD1       14.7100   30.5400   27.1740 C.3    82  ILE82       0.0001
@<TRIPOS>BOND
     1    15    13   am
     2    13    14    2
     3    13    12    1
     4    12     9    1
     5    16    17    1
     6    16    10   am
     7    90    88    1
     8     9    10    1
     9     9     8    1
    10    17    18    1
    11    10    11    2
    12    91    89    1
    13    88    89    1
    14    88    85    1
    15    19    18    2
    16    18    20   am
    17    87    86    1
    18    86    85    1
    19    29    31    1
    20    29    28    1
    21    85    84    1
    22    20    21    1
    23    28    30    1
    24    28    25    1
    25    84    79   am
    26    24    25    1
    27    24    22   am
    28    47    45   ar
    29    46    45   ar
    30    75    74    2
    31    21    22    1
    32    25    26    1
    33    45    44    1
    34    22    23    2
    35    27    26    2
    36    80    79    2
    37    79    78    1
    38    74    76   am
    39    74    73    1
    40    26    32   am
    41     4     3    2
    42    44    41    1
    43    72    73    1
    44    72    69    1
    45    78    77    1
    46    78    81    1
    47    71    70    2
    48    32    33    1
    49    82    81    1
    50    77    70   am
    51    70    69    1
    52     3     2    1
    53    40    41    1
    54    40    34   am
    55    41    42    1
    56    81    83    1
    57    33    34    1
    58    33    36    1
    59    56    54   ar
    60    56    58   ar
    61    69    68    1
    62    54    53   ar
    63    34    35    2
    64     1     2    1
    65    39    37    1
    66     5     2    1
    67     5     6    1
    68     5     7    1
    69    59    58    1
    70    68    62   am
    71    58    57   ar
    72    42    43    2
    73    53    52    1
    74    53    55   ar
    75    37    36    1
    76    36    38    1
    77    52    49    1
    78    57    55   ar
    79    49    48    1
    80    49    50    1
    81    62    63    2
    82    62    61    1
    83    66    64    1
    84    61    64    1
    85    61    60    1
    86    50    51    2
    87    64    65    1
    88    65    67    1
