@<TRIPOS>MOLECULE
tmp/1duvB00.pdb
 171 163 0 0 0
SMALL
GASTEIGER

@<TRIPOS>ATOM
      1  N         47.8260   34.1780   23.6690 N.3    53  LYS53      -0.1231
      2  CA        48.5090   33.1660   24.4760 C.3    53  LYS53       0.1693
      3  C         47.4460   32.5610   25.4030 C.2    53  LYS53       0.2592
      4  O         46.3600   33.1360   25.5910 O.2    53  LYS53      -0.2718
      5  CB        49.6440   33.7770   25.3210 C.3    53  LYS53       0.0285
      6  CG        50.8510   34.2530   24.5240 C.3    53  LYS53       0.0035
      7  CD        51.9430   34.8370   25.4560 C.3    53  LYS53       0.0206
      8  CE        53.1610   35.2980   24.6690 C.3    53  LYS53       0.1093
      9  NZ        54.0170   36.2190   25.4760 N.3    53  LYS53      -0.1314
     10  N         47.7680   31.4020   25.9740 N.am   54  ASP54      -0.1960
     11  CA        46.8630   30.6940   26.8660 C.3    54  ASP54       0.1840
     12  C         46.6400   31.4570   28.1520 C.2    54  ASP54       0.2623
     13  O         47.4540   32.2880   28.5400 O.2    54  ASP54      -0.2715
     14  CB        47.4210   29.3070   27.2130 C.3    54  ASP54       0.1450
     15  CG        47.4590   28.3520   26.0150 C.2    54  ASP54       0.3671
     16  OD1       46.6500   28.5080   25.0700 O.co2  54  ASP54      -0.2456
     17  OD2       48.2970   27.4310   26.0510 O.co2  54  ASP54      -0.2456
     18  N         45.5380   31.1520   28.8180 N.am   55  SER55      -0.1936
     19  CA        45.2180   31.8100   30.0640 C.3    55  SER55       0.2055
     20  C         44.0750   31.1920   30.8660 C.2    55  SER55       0.2644
     21  O         43.0480   30.7920   30.3180 O.2    55  SER55      -0.2714
     22  CB        44.8910   33.3040   29.8040 C.3    55  SER55       0.2130
     23  OG        44.5320   33.9940   31.0060 O.3    55  SER55      -0.2179
     24  N         44.2800   31.1290   32.1800 N.am   56  THR56      -0.1936
     25  CA        43.2520   30.6840   33.1100 C.3    56  THR56       0.2028
     26  C         42.9510   31.9020   34.0230 C.2    56  THR56       0.2642
     27  O         41.8730   32.4770   33.9470 O.2    56  THR56      -0.2714
     28  CB        43.6950   29.4580   33.9930 C.3    56  THR56       0.1808
     29  OG1       43.9780   28.3300   33.1580 O.3    56  THR56      -0.2208
     30  CG2       42.5710   29.0640   34.9700 C.3    56  THR56       0.0379
     31  N         43.9230   32.3090   34.8460 N.am   57  ARG57      -0.1963
     32  CA        43.7460   33.4340   35.7760 C.3    57  ARG57       0.1729
     33  C         43.3490   34.7500   35.1420 C.2    57  ARG57       0.2616
     34  O         42.3600   35.3550   35.5470 O.2    57  ARG57      -0.2715
     35  CB        45.0220   33.6950   36.5890 C.3    57  ARG57       0.0348
     36  CG        45.1420   32.8940   37.8680 C.3    57  ARG57       0.0492
     37  CD        46.5980   32.5840   38.1410 C.3    57  ARG57       0.2205
     38  NE        47.1410   31.7610   37.0720 N.pl3  57  ARG57      -0.0865
     39  CZ        47.0880   30.4310   37.0480 C.cat  57  ARG57       0.5346
     40  NH1       46.5290   29.7690   38.0550 N.pl3  57  ARG57       0.1354
     41  NH2       47.5510   29.7650   35.9910 N.pl3  57  ARG57       0.1354
     42  N         44.1230   35.2100   34.1680 N.am   58  THR58      -0.1951
     43  CA        43.8270   36.4930   33.5600 C.3    58  THR58       0.1897
     44  C         42.4800   36.4670   32.8390 C.2    58  THR58       0.2313
     45  O         41.6680   37.3810   33.0150 O.2    58  THR58      -0.2863
     46  CB        44.9830   36.9140   32.6410 C.3    58  THR58       0.1794
     47  OG1       46.1890   36.9590   33.4140 O.3    58  THR58      -0.2208
     48  CG2       44.7360   38.2870   32.0330 C.3    58  THR58       0.0378
     49  N         46.3940   40.2040   25.6250 N.3   106  ARG106     -0.1245
     50  CA        47.4460   39.3490   26.1370 C.3   106  ARG106      0.1563
     51  C         48.1590   38.8210   24.9000 C.2   106  ARG106      0.2260
     52  O         47.5340   38.2310   24.0090 O.2   106  ARG106     -0.2867
     53  CB        46.9230   38.1640   26.9540 C.3   106  ARG106      0.0307
     54  CG        48.0240   37.1060   27.0920 C.3   106  ARG106      0.0489
     55  CD        47.7200   35.9980   28.0960 C.3   106  ARG106      0.2205
     56  NE        47.8280   36.4850   29.4670 N.pl3 106  ARG106     -0.0865
     57  CZ        48.2700   35.7560   30.4860 C.cat 106  ARG106      0.5346
     58  NH1       48.6290   34.4990   30.2890 N.pl3 106  ARG106      0.1354
     59  NH2       48.3850   36.3050   31.6910 N.pl3 106  ARG106      0.1354
     60  N         49.2490   40.7880   29.7400 N.3   128  LEU128     -0.1245
     61  CA        50.5570   40.1240   29.6760 C.3   128  LEU128      0.1561
     62  C         51.1430   40.2320   28.2760 C.2   128  LEU128      0.2260
     63  O         50.4570   39.9520   27.2780 O.2   128  LEU128     -0.2867
     64  CB        50.5180   38.6440   30.0690 C.3   128  LEU128      0.0270
     65  CG        51.8850   37.9380   29.9980 C.3   128  LEU128      0.0019
     66  CD1       51.8950   36.7720   30.9600 C.3   128  LEU128      0.0001
     67  CD2       52.2090   37.4760   28.5830 C.3   128  LEU128      0.0001
     68  N         53.8430   42.5830   32.7020 N.3   133  HIS133     -0.1241
     69  CA        52.6160   41.9420   33.1700 C.3   133  HIS133      0.1621
     70  C         52.1110   42.7670   34.3720 C.2   133  HIS133      0.2264
     71  O         52.0470   42.2860   35.5150 O.2   133  HIS133     -0.2867
     72  CB        52.9000   40.4800   33.5620 C.3   133  HIS133      0.0745
     73  CG        51.6580   39.6630   33.7630 C.ar  133  HIS133      0.0817
     74  ND1       50.4060   40.1060   33.3850 N.ar  133  HIS133     -0.2268
     75  CD2       51.4760   38.4270   34.2920 C.ar  133  HIS133      0.1154
     76  CE1       49.5090   39.1800   33.6750 C.ar  133  HIS133      0.1986
     77  NE2       50.1330   38.1530   34.2270 N.ar  133  HIS133     -0.2212
     78  N         49.3960   41.6160   37.1510 N.3   136  GLN136     -0.1245
     79  CA        49.8960   40.6070   38.0740 C.3   136  GLN136      0.1566
     80  C         50.4540   41.3010   39.3210 C.2   136  GLN136      0.2260
     81  O         50.0760   40.9580   40.4460 O.2   136  GLN136     -0.2867
     82  CB        50.9890   39.7620   37.4090 C.3   136  GLN136      0.0367
     83  CG        51.5350   38.6200   38.2950 C.3   136  GLN136      0.0905
     84  CD        50.4660   37.6120   38.6890 C.2   136  GLN136      0.2608
     85  OE1       49.8240   37.0220   37.8200 O.2   136  GLN136     -0.2717
     86  NE2       50.2690   37.4020   40.0040 N.am  136  GLN136     -0.0878
     87  N         62.3910   37.9540   32.3550 N.3   166  ASN166     -0.1225
     88  CA        61.1300   37.6800   31.6700 C.3   166  ASN166      0.1785
     89  C         60.1660   38.8270   32.0460 C.2   166  ASN166      0.2597
     90  O         60.5840   39.7900   32.7190 O.2   166  ASN166     -0.2718
     91  CB        60.5750   36.2670   32.0430 C.3   166  ASN166      0.1169
     92  CG        60.0770   36.1490   33.4990 C.2   166  ASN166      0.2627
     93  OD1       59.9120   37.1370   34.2050 O.2   166  ASN166     -0.2716
     94  ND2       59.8170   34.9250   33.9330 N.am  166  ASN166     -0.0877
     95  N         58.9030   38.7690   31.6190 N.am  167  ASN167     -0.1960
     96  CA        57.9790   39.8550   31.9460 C.3   167  ASN167      0.1819
     97  C         57.8270   40.1400   33.4510 C.2   167  ASN167      0.2621
     98  O         57.6230   41.2730   33.8650 O.2   167  ASN167     -0.2715
     99  CB        56.5940   39.6040   31.3130 C.3   167  ASN167      0.1195
    100  CG        56.1670   38.1360   31.3720 C.2   167  ASN167      0.2630
    101  OD1       56.4850   37.4280   32.3160 O.2   167  ASN167     -0.2716
    102  ND2       55.4270   37.6850   30.3610 N.am  167  ASN167     -0.0877
    103  N         57.9220   39.1100   34.2740 N.am  168  MET168     -0.1977
    104  CA        57.7830   39.3070   35.7110 C.3   168  MET168      0.1605
    105  C         58.9940   40.0240   36.3070 C.2   168  MET168      0.2287
    106  O         58.8460   40.8420   37.1970 O.2   168  MET168     -0.2864
    107  CB        57.5700   37.9600   36.3920 C.3   168  MET168      0.0413
    108  CG        56.3130   37.2770   35.9410 C.3   168  MET168      0.0598
    109  SD        54.8750   38.2920   36.2580 S.3   168  MET168     -0.1393
    110  CE        54.9570   38.5450   38.0650 C.3   168  MET168      0.0692
    111  N         58.8060   32.0040   39.3580 N.3   231  ASP231     -0.1225
    112  CA        57.9620   31.8340   38.1700 C.3   231  ASP231      0.1805
    113  C         58.6740   30.8090   37.2690 C.2   231  ASP231      0.2597
    114  O         59.8440   30.4790   37.5160 O.2   231  ASP231     -0.2718
    115  CB        57.8260   33.2390   37.5100 C.3   231  ASP231      0.1424
    116  CG        57.0560   33.2320   36.1860 C.2   231  ASP231      0.3668
    117  OD1       56.1370   32.3990   36.0080 O.co2 231  ASP231     -0.2456
    118  OD2       57.3810   34.1010   35.3390 O.co2 231  ASP231     -0.2456
    119  N         57.9830   30.2870   36.2500 N.am  232  VAL232     -0.1980
    120  CA        58.6010   29.3050   35.3540 C.3   232  VAL232      0.1595
    121  C         59.8640   29.8520   34.6980 C.2   232  VAL232      0.2287
    122  O         59.9740   31.0440   34.4140 O.2   232  VAL232     -0.2864
    123  CB        57.6010   28.8140   34.2500 C.3   232  VAL232      0.0276
    124  CG1       56.4040   28.1570   34.8970 C.3   232  VAL232      0.0022
    125  CG2       57.1740   29.9710   33.3650 C.3   232  VAL232      0.0022
    126  N         59.1450   31.0270   29.6290 N.3   235  SER235     -0.1202
    127  CA        57.8000   31.5940   29.5520 C.3   235  SER235      0.2020
    128  C         57.0040   31.1770   28.3120 C.2   235  SER235      0.2618
    129  O         57.5700   30.6510   27.3450 O.2   235  SER235     -0.2717
    130  CB        57.8990   33.1270   29.6240 C.3   235  SER235      0.2103
    131  OG        58.2850   33.5550   30.9200 O.3   235  SER235     -0.2182
    132  N         55.6890   31.4110   28.3500 N.am  236  MET236     -0.1979
    133  CA        54.8250   31.0820   27.2070 C.3   236  MET236      0.1605
    134  C         55.3270   31.7840   25.9440 C.2   236  MET236      0.2287
    135  O         55.6180   32.9830   25.9600 O.2   236  MET236     -0.2864
    136  CB        53.3810   31.5220   27.4650 C.3   236  MET236      0.0413
    137  CG        52.6510   30.7640   28.5330 C.3   236  MET236      0.0598
    138  SD        50.9160   31.2290   28.4850 S.3   236  MET236     -0.1393
    139  CE        50.9530   32.8200   29.2310 C.3   236  MET236      0.0692
    140  N         53.3090   33.6230   40.5090 N.3   273  CYS273     -0.1221
    141  CA        52.2400   34.1270   39.6590 C.3   273  CYS273      0.1808
    142  C         51.3560   33.0080   39.0920 C.2   273  CYS273      0.2601
    143  O         50.1570   33.2300   38.8660 O.2   273  CYS273     -0.2717
    144  CB        52.8080   34.9900   38.5330 C.3   273  CYS273      0.0970
    145  SG        54.0540   34.2290   37.5200 S.3   273  CYS273     -0.0800
    146  N         51.9390   31.8170   38.9040 N.am  274  LEU274     -0.1966
    147  CA        51.2320   30.6430   38.3610 C.3   274  LEU274      0.1713
    148  C         50.9650   30.8830   36.8720 C.2   274  LEU274      0.2458
    149  O         50.9740   32.0200   36.4280 O.2   274  LEU274     -0.2730
    150  CB        49.8920   30.3880   39.1020 C.3   274  LEU274      0.0310
    151  CG        49.9030   30.2650   40.6420 C.3   274  LEU274      0.0022
    152  CD1       48.5150   29.9310   41.1380 C.3   274  LEU274      0.0001
    153  CD2       50.9060   29.2200   41.0940 C.3   274  LEU274      0.0001
    154  N         50.7910   29.8100   36.0720 N.am  275  PRO275     -0.2727
    155  CA        50.8400   28.4050   36.5020 C.3   275  PRO275      0.1402
    156  C         52.2670   28.0290   36.9130 C.2   275  PRO275      0.2269
    157  O         53.2520   28.5810   36.3780 O.2   275  PRO275     -0.2865
    158  CB        50.3700   27.6440   35.2530 C.3   275  PRO275      0.0296
    159  CG        50.9240   28.4920   34.1280 C.3   275  PRO275      0.0237
    160  CD        50.5570   29.8990   34.6120 C.3   275  PRO275      0.0939
    161  N         44.0070   38.4430   41.6810 N.3   319  ARG319     -0.1245
    162  CA        44.1430   38.7920   40.2680 C.3   319  ARG319      0.1563
    163  C         42.7990   39.3710   39.8050 C.2   319  ARG319      0.2260
    164  O         42.7560   40.3200   39.0180 O.2   319  ARG319     -0.2867
    165  CB        44.4500   37.5440   39.4140 C.3   319  ARG319      0.0307
    166  CG        45.8580   37.0180   39.5090 C.3   319  ARG319      0.0489
    167  CD        46.8760   38.0860   39.1330 C.3   319  ARG319      0.2205
    168  NE        46.6470   38.7030   37.8180 N.pl3 319  ARG319     -0.0865
    169  CZ        46.7990   38.0960   36.6420 C.cat 319  ARG319      0.5346
    170  NH1       47.1760   36.8250   36.5700 N.pl3 319  ARG319      0.1354
    171  NH2       46.6060   38.7830   35.5290 N.pl3 319  ARG319      0.1354
@<TRIPOS>BOND
     1     1     2    1
     2    52    51    2
     3     2     5    1
     4     2     3    1
     5     6     5    1
     6     6     7    1
     7     8     7    1
     8     8     9    1
     9    51    50    1
    10    16    15   ar
    11     3     4    2
    12     3    10   am
    13    49    50    1
    14   134   135    2
    15   134   133    1
    16    10    11    1
    17    15    17   ar
    18    15    14    1
    19    50    53    1
    20    11    14    1
    21    11    12    1
    22    53    54    1
    23    54    55    1
    24   133   136    1
    25   133   132    1
    26    63    62    2
    27   129   128    2
    28   136   137    1
    29    55    56    1
    30    12    13    2
    31    12    18   am
    32    62    61    1
    33   128   132   am
    34   128   127    1
    35   138   137    1
    36   138   139    1
    37    67    65    1
    38    18    19    1
    39    56    57    2
    40   127   130    1
    41   127   126    1
    42   130   131    1
    43    61    60    1
    44    61    64    1
    45    22    19    1
    46    22    23    1
    47    65    64    1
    48    65    66    1
    49    19    20    1
    50    58    57    1
    51    21    20    2
    52   102   100   am
    53    57    59    1
    54    20    24   am
    55    99   100    1
    56    99    96    1
    57   100   101    2
    58    95    96    1
    59    95    89   am
    60    88    91    1
    61    88    89    1
    62    88    87    1
    63    96    97    1
    64    48    46    1
    65    91    92    1
    66    89    90    2
    67    24    25    1
    68    46    47    1
    69    46    43    1
    70    68    69    1
    71    44    45    2
    72    44    43    1
    73    25    28    1
    74    25    26    1
    75    29    28    1
    76    69    72    1
    77    69    70    1
    78   125   123    1
    79    74    76   ar
    80    74    73   ar
    81    97    98    2
    82    97   103   am
    83    92    94   am
    84    92    93    2
    85    43    42    1
    86    72    73    1
    87    76    77   ar
    88    73    75   ar
    89    27    26    2
    90    28    30    1
    91    26    31   am
    92   159   160    1
    93   159   158    1
    94    42    33   am
    95    77    75   ar
    96   123   124    1
    97   123   120    1
    98   103   104    1
    99    70    71    2
   100   122   121    2
   101   160   154    1
   102   121   120    1
   103    31    32    1
   104    33    34    2
   105    33    32    1
   106   158   155    1
   107   118   116   ar
   108   120   119    1
   109   171   169    1
   110   104   105    1
   111   104   107    1
   112    32    35    1
   113   108   109    1
   114   108   107    1
   115    41    39    1
   116   117   116   ar
   117   154   155    1
   118   154   148   am
   119   116   115    1
   120   119   113   am
   121   109   110    1
   122   105   106    2
   123   157   156    2
   124   149   148    2
   125   155   156    1
   126   170   169    1
   127    35    36    1
   128   169   168    2
   129   148   147    1
   130    39    38    2
   131    39    40    1
   132    38    37    1
   133    78    79    1
   134   113   114    2
   135   113   112    1
   136    82    79    1
   137    82    83    1
   138   115   112    1
   139   145   144    1
   140   168   167    1
   141    85    84    2
   142    36    37    1
   143    79    80    1
   144   112   111    1
   145    83    84    1
   146   147   146    1
   147   147   150    1
   148   144   141    1
   149    84    86   am
   150   143   142    2
   151   146   142   am
   152   164   163    2
   153   142   141    1
   154   150   151    1
   155   167   166    1
   156    80    81    2
   157   165   166    1
   158   165   162    1
   159   141   140    1
   160   163   162    1
   161   162   161    1
   162   151   153    1
   163   151   152    1
