@<TRIPOS>MOLECULE
tmp/1duvA01.pdb
 85 81 0 0 0
SMALL
GASTEIGER

@<TRIPOS>ATOM
      1  N         19.3570   16.3340   50.3050 N.3     2  GLY2       -0.1210
      2  CA        19.3920   17.4980   49.4430 C.3     2  GLY2        0.1956
      3  C         20.5530   17.6520   48.4910 C.2     2  GLY2        0.2612
      4  O         21.4720   16.8340   48.4450 O.2     2  GLY2       -0.2717
      5  N         20.4970   18.7370   47.7280 N.am    3  PHE3       -0.1962
      6  CA        21.5290   19.0320   46.7510 C.3     3  PHE3        0.1771
      7  C         22.3030   20.2940   47.0950 C.2     3  PHE3        0.2619
      8  O         23.3820   20.5320   46.5260 O.2     3  PHE3       -0.2715
      9  CB        20.9030   19.1900   45.3500 C.3     3  PHE3        0.0574
     10  CG        20.3720   17.9000   44.7680 C.ar    3  PHE3       -0.0200
     11  CD1       19.0410   17.5280   44.9550 C.ar    3  PHE3       -0.0042
     12  CD2       21.2190   17.0420   44.0560 C.ar    3  PHE3       -0.0042
     13  CE1       18.5580   16.3170   44.4450 C.ar    3  PHE3       -0.0003
     14  CE2       20.7460   15.8350   43.5450 C.ar    3  PHE3       -0.0003
     15  CZ        19.4120   15.4740   43.7410 C.ar    3  PHE3       -0.0000
     16  N         21.7850   21.0780   48.0400 N.am    4  TYR4       -0.1974
     17  CA        22.4260   22.3400   48.3660 C.3     4  TYR4        0.1639
     18  C         23.9220   22.2580   48.6610 C.2     4  TYR4        0.2290
     19  O         24.3710   21.6290   49.6240 O.2     4  TYR4       -0.2864
     20  CB        21.6860   23.0600   49.4970 C.3     4  TYR4        0.0560
     21  CG        22.1400   24.5030   49.6380 C.ar    4  TYR4       -0.0198
     22  CD1       21.7780   25.4600   48.7000 C.ar    4  TYR4       -0.0009
     23  CD2       22.9730   24.8930   50.6930 C.ar    4  TYR4       -0.0009
     24  CE1       22.2300   26.7710   48.8060 C.ar    4  TYR4        0.0417
     25  CE2       23.4380   26.2000   50.8090 C.ar    4  TYR4        0.0417
     26  CZ        23.0630   27.1310   49.8650 C.ar    4  TYR4        0.1957
     27  OH        23.5350   28.4120   49.9710 O.3     4  TYR4       -0.2866
     28  N         13.3280   13.9990   43.3980 N.3    21  SER21      -0.1202
     29  CA        13.1330   15.4240   43.6370 C.3    21  SER21       0.2020
     30  C         13.7730   16.2330   42.4970 C.2    21  SER21       0.2618
     31  O         13.1670   17.1820   41.9850 O.2    21  SER21      -0.2717
     32  CB        13.7690   15.8300   44.9700 C.3    21  SER21       0.2103
     33  OG        13.1210   15.1720   46.0520 O.3    21  SER21      -0.2182
     34  N         14.9900   15.8480   42.0970 N.am   22  LEU22      -0.1979
     35  CA        15.6990   16.5530   41.0260 C.3    22  LEU22       0.1596
     36  C         14.9080   16.4850   39.7290 C.2    22  LEU22       0.2287
     37  O         14.7500   17.4830   39.0330 O.2    22  LEU22      -0.2864
     38  CB        17.0930   15.9590   40.8260 C.3    22  LEU22       0.0297
     39  CG        18.0620   16.8090   40.0020 C.3    22  LEU22       0.0022
     40  CD1       18.2590   18.1940   40.6510 C.3    22  LEU22       0.0001
     41  CD2       19.3810   16.0710   39.9060 C.3    22  LEU22       0.0001
     42  N         12.0220   18.8740   39.9580 N.3    25  LEU25      -0.1245
     43  CA        12.4450   20.2480   39.7870 C.3    25  LEU25       0.1561
     44  C         12.6470   20.5140   38.2790 C.2    25  LEU25       0.2260
     45  O         12.2740   21.5610   37.7630 O.2    25  LEU25      -0.2867
     46  CB        13.7450   20.4980   40.5520 C.3    25  LEU25       0.0270
     47  CG        14.3840   21.8880   40.3690 C.3    25  LEU25       0.0019
     48  CD1       13.3770   22.9740   40.7040 C.3    25  LEU25       0.0001
     49  CD2       15.6150   22.0250   41.2530 C.3    25  LEU25       0.0001
     50  N         16.8930   32.0490   39.7710 N.3    41  LYS41      -0.1245
     51  CA        17.3900   31.8350   41.1270 C.3    41  LYS41       0.1561
     52  C         18.9010   31.9810   41.2240 C.2    41  LYS41       0.2260
     53  O         19.4660   32.0070   42.3180 O.2    41  LYS41      -0.2867
     54  CB        16.9770   30.4460   41.6240 C.3    41  LYS41       0.0271
     55  CG        15.4640   30.2190   41.6860 C.3    41  LYS41       0.0035
     56  CD        14.7790   31.0870   42.7420 C.3    41  LYS41       0.0206
     57  CE        15.0280   30.5670   44.1560 C.3    41  LYS41       0.1093
     58  NZ        14.5520   29.1580   44.3060 N.3    41  LYS41      -0.1314
     59  N         20.4450   24.8380   39.8220 N.3   328  VAL328     -0.1231
     60  CA        19.5130   25.4840   40.7450 C.3   328  VAL328      0.1692
     61  C         19.4680   24.7290   42.0890 C.2   328  VAL328      0.2591
     62  O         19.5340   25.3450   43.1570 O.2   328  VAL328     -0.2718
     63  CB        18.0920   25.5160   40.1490 C.3   328  VAL328      0.0266
     64  CG1       17.0760   26.0330   41.2020 C.3   328  VAL328      0.0020
     65  CG2       18.0780   26.3930   38.8970 C.3   328  VAL328      0.0020
     66  N         19.3740   23.3980   42.0260 N.am  329  ALA329     -0.1980
     67  CA        19.3000   22.5660   43.2190 C.3   329  ALA329      0.1597
     68  C         20.5500   22.6530   44.0580 C.2   329  ALA329      0.2287
     69  O         20.4740   22.5700   45.2820 O.2   329  ALA329     -0.2864
     70  CB        19.0420   21.1200   42.8430 C.3   329  ALA329      0.0319
     71  N         21.0490   27.0350   45.1230 N.3   332  SER332     -0.1202
     72  CA        20.0130   27.7940   45.8050 C.3   332  SER332      0.2020
     73  C         19.0950   26.8520   46.5640 C.2   332  SER332      0.2618
     74  O         19.0440   25.6450   46.2710 O.2   332  SER332     -0.2717
     75  CB        19.2150   28.6410   44.7990 C.3   332  SER332      0.2103
     76  OG        18.5080   27.8360   43.8720 O.3   332  SER332     -0.2182
     77  N         18.3950   27.4020   47.5570 N.am  333  LYS333     -0.1979
     78  CA        17.4780   26.6260   48.3760 C.3   333  LYS333      0.1596
     79  C         16.1520   26.5480   47.6630 C.2   333  LYS333      0.2287
     80  O         15.4900   25.5050   47.8160 O.2   333  LYS333     -0.2864
     81  CB        17.2860   27.2590   49.7580 C.3   333  LYS333      0.0298
     82  CG        18.5700   27.4640   50.5380 C.3   333  LYS333      0.0038
     83  CD        19.3760   26.1940   50.6390 C.3   333  LYS333      0.0206
     84  CE        18.6640   25.1400   51.4370 C.3   333  LYS333      0.1093
     85  NZ        18.8700   25.3350   52.8830 N.3   333  LYS333     -0.1314
@<TRIPOS>BOND
     1    45    44    2
     2    44    43    1
     3    65    63    1
     4    37    36    2
     5    36    35    1
     6    50    51    1
     7    43    42    1
     8    43    46    1
     9    59    60    1
    10    41    39    1
    11    39    40    1
    12    39    38    1
    13    63    60    1
    14    63    64    1
    15    47    46    1
    16    47    48    1
    17    47    49    1
    18    60    61    1
    19    38    35    1
    20    35    34    1
    21    51    52    1
    22    51    54    1
    23    52    53    2
    24    54    55    1
    25    55    56    1
    26    31    30    2
    27    66    61   am
    28    66    67    1
    29    61    62    2
    30    34    30   am
    31    30    29    1
    32    56    57    1
    33    70    67    1
    34    67    68    1
    35    28    29    1
    36    14    15   ar
    37    14    12   ar
    38    29    32    1
    39    15    13   ar
    40    76    75    1
    41    12    10   ar
    42    68    69    2
    43    57    58    1
    44    13    11   ar
    45    10    11   ar
    46    10     9    1
    47    75    72    1
    48    32    33    1
    49    71    72    1
    50     9     6    1
    51    72    73    1
    52    74    73    2
    53     8     7    2
    54    73    77   am
    55     6     7    1
    56     6     5    1
    57     7    16   am
    58    77    78    1
    59    79    80    2
    60    79    78    1
    61     5     3   am
    62    16    17    1
    63    17    18    1
    64    17    20    1
    65    78    81    1
    66     4     3    2
    67     3     2    1
    68    18    19    2
    69    22    24   ar
    70    22    21   ar
    71    24    26   ar
    72     2     1    1
    73    20    21    1
    74    21    23   ar
    75    81    82    1
    76    26    27    1
    77    26    25   ar
    78    82    83    1
    79    83    84    1
    80    23    25   ar
    81    84    85    1
