@<TRIPOS>MOLECULE
tmp/1duyD00.pdb
 270 260 0 0 0
SMALL
GASTEIGER

@<TRIPOS>ATOM
      1  N         41.7980   44.2370   24.7780 N.3     7  TYR7       -0.1241
      2  CA        43.2380   44.3300   24.9540 C.3     7  TYR7        0.1605
      3  C         43.4760   44.6860   26.4300 C.2     7  TYR7        0.2264
      4  O         42.7650   45.5070   27.0300 O.2     7  TYR7       -0.2867
      5  CB        43.8520   45.3850   24.0210 C.3     7  TYR7        0.0534
      6  CG        43.9160   44.9610   22.5600 C.ar    7  TYR7       -0.0201
      7  CD1       44.9780   44.1850   22.0630 C.ar    7  TYR7       -0.0009
      8  CD2       42.9440   45.3820   21.6650 C.ar    7  TYR7       -0.0009
      9  CE1       45.0670   43.8550   20.6860 C.ar    7  TYR7        0.0417
     10  CE2       43.0100   45.0670   20.3100 C.ar    7  TYR7        0.0417
     11  CZ        44.0650   44.3130   19.8170 C.ar    7  TYR7        0.1957
     12  OH        44.0920   44.0670   18.4590 O.3     7  TYR7       -0.2866
     13  N         46.5520   45.5440   29.2360 N.3     9  PHE9       -0.1241
     14  CA        47.8760   46.0850   29.3670 C.3     9  PHE9        0.1605
     15  C         48.2580   46.1560   30.8400 C.2     9  PHE9        0.2264
     16  O         47.5160   46.7130   31.6590 O.2     9  PHE9       -0.2867
     17  CB        47.8890   47.4970   28.7420 C.3     9  PHE9        0.0534
     18  CG        47.5090   47.5260   27.2730 C.ar    9  PHE9       -0.0203
     19  CD1       48.4580   47.2310   26.2860 C.ar    9  PHE9       -0.0042
     20  CD2       46.2080   47.8490   26.8740 C.ar    9  PHE9       -0.0042
     21  CE1       48.1200   47.2610   24.9280 C.ar    9  PHE9       -0.0003
     22  CE2       45.8550   47.8810   25.5100 C.ar    9  PHE9       -0.0003
     23  CZ        46.8110   47.5880   24.5400 C.ar    9  PHE9       -0.0000
     24  N         55.0810   42.2960   18.4950 N.3    45  MET45      -0.1245
     25  CA        53.7900   41.7620   18.8630 C.3    45  MET45       0.1570
     26  C         53.9000   40.3400   18.2950 C.2    45  MET45       0.2261
     27  O         54.3890   40.1680   17.1790 O.2    45  MET45      -0.2867
     28  CB        52.6750   42.5370   18.1490 C.3    45  MET45       0.0387
     29  CG        51.2630   42.0520   18.4920 C.3    45  MET45       0.0595
     30  SD        50.8100   42.4970   20.1640 S.3    45  MET45      -0.1393
     31  CE        49.8630   44.0490   19.8410 C.3    45  MET45       0.0692
     32  N         50.9980   46.5530   14.3220 N.3    63  GLU63      -0.1245
     33  CA        50.6120   46.2680   15.7030 C.3    63  GLU63       0.1567
     34  C         51.8190   46.4130   16.6240 C.2    63  GLU63       0.2260
     35  O         51.7010   46.8250   17.7820 O.2    63  GLU63      -0.2867
     36  CB        50.0280   44.8490   15.8170 C.3    63  GLU63       0.0388
     37  CG        48.7780   44.6490   14.9890 C.3    63  GLU63       0.1160
     38  CD        47.7460   45.7260   15.2920 C.2    63  GLU63       0.3649
     39  OE1       46.9670   45.5440   16.2480 O.co2  63  GLU63      -0.2457
     40  OE2       47.7350   46.7670   14.5940 O.co2  63  GLU63      -0.2457
     41  N         54.2690   48.4790   16.2130 N.3    65  ARG65      -0.1231
     42  CA        54.5120   49.9090   16.3710 C.3    65  ARG65       0.1694
     43  C         53.5830   50.4300   17.4640 C.2    65  ARG65       0.2592
     44  O         54.0360   50.9890   18.4580 O.2    65  ARG65      -0.2718
     45  CB        54.2430   50.6330   15.0490 C.3    65  ARG65       0.0321
     46  CG        54.2690   52.1490   15.1440 C.3    65  ARG65       0.0489
     47  CD        53.9700   52.7770   13.7790 C.3    65  ARG65       0.2205
     48  NE        52.5950   52.5280   13.3340 N.pl3  65  ARG65      -0.0865
     49  CZ        51.5080   53.0610   13.8950 C.cat  65  ARG65       0.5346
     50  NH1       51.6120   53.8850   14.9340 N.pl3  65  ARG65       0.1354
     51  NH2       50.3090   52.7620   13.4160 N.pl3  65  ARG65       0.1354
     52  N         52.2810   50.2260   17.2820 N.am   66  LYS66      -0.1966
     53  CA        51.2970   50.6710   18.2650 C.3    66  LYS66       0.1728
     54  C         51.4800   50.0950   19.6720 C.2    66  LYS66       0.2616
     55  O         51.3050   50.8250   20.6530 O.2    66  LYS66      -0.2715
     56  CB        49.9030   50.3560   17.7770 C.3    66  LYS66       0.0311
     57  CG        49.5490   51.1110   16.5130 C.3    66  LYS66       0.0038
     58  CD        48.0950   50.9230   16.1680 C.3    66  LYS66       0.0206
     59  CE        47.9200   50.7870   14.6810 C.3    66  LYS66       0.1093
     60  NZ        46.4680   50.6600   14.3610 N.3    66  LYS66      -0.1314
     61  N         51.8310   48.8100   19.7930 N.am   67  VAL67      -0.1977
     62  CA        52.0150   48.2300   21.1310 C.3    67  VAL67       0.1596
     63  C         53.2110   48.8310   21.8480 C.2    67  VAL67       0.2287
     64  O         53.1500   49.0530   23.0470 O.2    67  VAL67      -0.2864
     65  CB        52.1210   46.6710   21.1180 C.3    67  VAL67       0.0276
     66  CG1       53.4590   46.2120   20.6300 C.3    67  VAL67       0.0022
     67  CG2       51.8540   46.1460   22.4920 C.3    67  VAL67       0.0022
     68  N         54.1690   51.8090   21.4230 N.3    69  ALA69      -0.1231
     69  CA        53.6520   53.1400   21.7640 C.3    69  ALA69       0.1694
     70  C         52.8870   53.0410   23.0810 C.2    69  ALA69       0.2592
     71  O         53.1090   53.8560   23.9730 O.2    69  ALA69      -0.2718
     72  CB        52.7140   53.6790   20.6590 C.3    69  ALA69       0.0304
     73  N         51.9900   52.0540   23.2000 N.am   70  HIS70      -0.1976
     74  CA        51.2220   51.8590   24.4410 C.3    70  HIS70       0.1656
     75  C         52.1630   51.6840   25.6190 C.2    70  HIS70       0.2291
     76  O         51.9740   52.2610   26.6990 O.2    70  HIS70      -0.2864
     77  CB        50.3260   50.6290   24.3430 C.3    70  HIS70       0.0771
     78  CG        49.0710   50.8630   23.5590 C.ar   70  HIS70       0.0820
     79  ND1       49.0850   51.2680   22.2440 N.ar   70  HIS70      -0.2267
     80  CD2       47.7660   50.7350   23.8990 C.ar   70  HIS70       0.1154
     81  CE1       47.8410   51.3780   21.8060 C.ar   70  HIS70       0.1986
     82  NE2       47.0220   51.0600   22.7900 N.ar   70  HIS70      -0.2212
     83  N         55.2180   52.7270   25.9630 N.3    72  GLN72      -0.1231
     84  CA        55.7980   53.9810   26.3940 C.3    72  GLN72       0.1698
     85  C         54.8210   54.9090   27.1380 C.2    72  GLN72       0.2592
     86  O         55.1880   55.4710   28.1650 O.2    72  GLN72      -0.2718
     87  CB        56.4660   54.6960   25.2120 C.3    72  GLN72       0.0381
     88  CG        57.7410   53.9900   24.7300 C.3    72  GLN72       0.0905
     89  CD        58.8100   53.7980   25.8360 C.2    72  GLN72       0.2608
     90  OE1       59.4900   54.7460   26.2470 O.2    72  GLN72      -0.2717
     91  NE2       58.9480   52.5680   26.3160 N.am   72  GLN72      -0.0878
     92  N         53.5800   55.0640   26.6800 N.am   73  THR73      -0.1953
     93  CA        52.7040   55.9570   27.4330 C.3    73  THR73       0.1897
     94  C         52.5670   55.4000   28.8350 C.2    73  THR73       0.2313
     95  O         52.4980   56.1620   29.7980 O.2    73  THR73      -0.2863
     96  CB        51.2760   56.1370   26.8250 C.3    73  THR73       0.1794
     97  OG1       50.5400   54.9120   26.9040 O.3    73  THR73      -0.2208
     98  CG2       51.3580   56.6030   25.3980 C.3    73  THR73       0.0378
     99  N         55.4170   56.5240   31.0790 N.3    76  VAL76      -0.1231
    100  CA        55.3060   57.9120   31.5040 C.3    76  VAL76       0.1692
    101  C         54.1750   57.9320   32.5310 C.2    76  VAL76       0.2592
    102  O         54.2240   58.6430   33.5310 O.2    76  VAL76      -0.2718
    103  CB        54.9560   58.8230   30.3270 C.3    76  VAL76       0.0266
    104  CG1       54.2660   60.0810   30.8220 C.3    76  VAL76       0.0020
    105  CG2       56.2180   59.1660   29.5650 C.3    76  VAL76       0.0020
    106  N         53.1470   57.1290   32.2820 N.am   77  ASP77      -0.1974
    107  CA        52.0110   57.0500   33.2010 C.3    77  ASP77       0.1709
    108  C         52.4440   56.7720   34.6390 C.2    77  ASP77       0.2293
    109  O         52.0240   57.4630   35.5710 O.2    77  ASP77      -0.2864
    110  CB        51.0560   55.9290   32.7930 C.3    77  ASP77       0.1436
    111  CG        50.0860   56.3400   31.7090 C.2    77  ASP77       0.3671
    112  OD1       49.9240   57.5700   31.4720 O.co2  77  ASP77      -0.2456
    113  OD2       49.4640   55.4200   31.1100 O.co2  77  ASP77      -0.2456
    114  N         53.6430   59.9430   36.2280 N.3    80  THR80      -0.1203
    115  CA        52.5350   60.8490   36.5270 C.3    80  THR80       0.1994
    116  C         51.7730   60.4610   37.7910 C.2    80  THR80       0.2617
    117  O         51.5480   61.3040   38.6520 O.2    80  THR80      -0.2717
    118  CB        51.5080   60.9090   35.3850 C.3    80  THR80       0.1784
    119  OG1       52.1690   61.1850   34.1500 O.3    80  THR80      -0.2211
    120  CG2       50.4930   62.0260   35.6450 C.3    80  THR80       0.0376
    121  N         51.3760   59.1910   37.8940 N.am   81  LEU81      -0.1979
    122  CA        50.6240   58.6720   39.0510 C.3    81  LEU81       0.1596
    123  C         51.4210   58.7210   40.3610 C.2    81  LEU81       0.2287
    124  O         50.8770   59.0240   41.4300 O.2    81  LEU81      -0.2864
    125  CB        50.1580   57.2380   38.7590 C.3    81  LEU81       0.0297
    126  CG        49.1910   57.2050   37.5670 C.3    81  LEU81       0.0022
    127  CD1       49.1080   55.8140   36.9460 C.3    81  LEU81       0.0001
    128  CD2       47.8320   57.6930   38.0290 C.3    81  LEU81       0.0001
    129  N         51.0030   62.1980   41.1630 N.3    84  TYR84      -0.1241
    130  CA        49.6480   62.5530   41.6140 C.3    84  TYR84       0.1605
    131  C         49.3610   62.1440   43.0400 C.2    84  TYR84       0.2264
    132  O         48.5660   62.8010   43.7260 O.2    84  TYR84      -0.2867
    133  CB        48.5630   61.9020   40.7500 C.3    84  TYR84       0.0534
    134  CG        48.3730   62.4750   39.3680 C.ar   84  TYR84      -0.0201
    135  CD1       48.9940   63.6680   38.9820 C.ar   84  TYR84      -0.0009
    136  CD2       47.5430   61.8320   38.4490 C.ar   84  TYR84      -0.0009
    137  CE1       48.7880   64.2020   37.7080 C.ar   84  TYR84       0.0417
    138  CE2       47.3250   62.3540   37.1810 C.ar   84  TYR84       0.0417
    139  CZ        47.9470   63.5350   36.8100 C.ar   84  TYR84       0.1957
    140  OH        47.7370   64.0390   35.5410 O.3    84  TYR84      -0.2866
    141  N         45.3880   48.7630   32.1490 N.3    97  ARG97      -0.1245
    142  CA        44.4830   49.4030   31.1980 C.3    97  ARG97       0.1563
    143  C         43.8270   48.3690   30.3020 C.2    97  ARG97       0.2260
    144  O         44.4860   47.4830   29.7700 O.2    97  ARG97      -0.2867
    145  CB        45.2580   50.3830   30.3260 C.3    97  ARG97       0.0307
    146  CG        44.4910   50.9550   29.1560 C.3    97  ARG97       0.0489
    147  CD        45.4880   51.6460   28.2120 C.3    97  ARG97       0.2205
    148  NE        44.8350   52.5290   27.2550 N.pl3  97  ARG97      -0.0865
    149  CZ        45.4270   53.0740   26.1950 C.cat  97  ARG97       0.5346
    150  NH1       46.7020   52.8350   25.9270 N.pl3  97  ARG97       0.1354
    151  NH2       44.7320   53.8810   25.4010 N.pl3  97  ARG97       0.1354
    152  N         40.6470   47.9480   27.1750 N.3    99  TYR99      -0.1241
    153  CA        39.7070   48.5710   26.2600 C.3    99  TYR99       0.1605
    154  C         39.3480   47.5550   25.2110 C.2    99  TYR99       0.2264
    155  O         40.1370   46.6440   24.9110 O.2    99  TYR99      -0.2867
    156  CB        40.2420   49.8840   25.6440 C.3    99  TYR99       0.0534
    157  CG        41.4390   49.7990   24.7220 C.ar   99  TYR99      -0.0201
    158  CD1       41.3280   49.2510   23.4310 C.ar   99  TYR99      -0.0009
    159  CD2       42.6770   50.3350   25.1150 C.ar   99  TYR99      -0.0009
    160  CE1       42.4310   49.2470   22.5470 C.ar   99  TYR99       0.0417
    161  CE2       43.7690   50.3380   24.2480 C.ar   99  TYR99       0.0417
    162  CZ        43.6410   49.7990   22.9680 C.ar   99  TYR99       0.1957
    163  OH        44.7190   49.8510   22.1040 O.3    99  TYR99      -0.2866
    164  N         37.0170   51.4540   28.0460 N.3   114  HIS114     -0.1241
    165  CA        38.3390   52.0860   28.1010 C.3   114  HIS114      0.1621
    166  C         38.5130   52.5440   29.5550 C.2   114  HIS114      0.2264
    167  O         37.9850   53.5740   29.9500 O.2   114  HIS114     -0.2867
    168  CB        38.4470   53.2850   27.1540 C.3   114  HIS114      0.0745
    169  CG        39.8080   53.9070   27.1460 C.ar  114  HIS114      0.0817
    170  ND1       40.8450   53.4110   26.3840 N.ar  114  HIS114     -0.2268
    171  CD2       40.3380   54.8990   27.9000 C.ar  114  HIS114      0.1154
    172  CE1       41.9570   54.0630   26.6790 C.ar  114  HIS114      0.1986
    173  NE2       41.6760   54.9690   27.5970 N.ar  114  HIS114     -0.2212
    174  N         41.2640   52.4500   33.2960 N.3   116  TYR116     -0.1241
    175  CA        42.5540   52.1870   33.9180 C.3   116  TYR116      0.1605
    176  C         42.3340   51.8130   35.3700 C.2   116  TYR116      0.2264
    177  O         41.2550   52.0290   35.9190 O.2   116  TYR116     -0.2867
    178  CB        43.4530   53.4270   33.9010 C.3   116  TYR116      0.0534
    179  CG        44.0940   53.7920   32.5760 C.ar  116  TYR116     -0.0201
    180  CD1       43.3230   54.1430   31.4680 C.ar  116  TYR116     -0.0009
    181  CD2       45.4790   53.8330   32.4510 C.ar  116  TYR116     -0.0009
    182  CE1       43.9240   54.5280   30.2690 C.ar  116  TYR116      0.0417
    183  CE2       46.0880   54.2100   31.2700 C.ar  116  TYR116      0.0417
    184  CZ        45.3190   54.5500   30.1860 C.ar  116  TYR116      0.1957
    185  OH        45.9380   54.8460   29.0030 O.3   116  TYR116     -0.2866
    186  N         40.5320   53.3240   38.6290 N.3   123  TYR123     -0.1241
    187  CA        41.1640   54.6430   38.5560 C.3   123  TYR123      0.1605
    188  C         40.2710   55.5550   37.7130 C.2   123  TYR123      0.2264
    189  O         39.7640   56.5740   38.1940 O.2   123  TYR123     -0.2867
    190  CB        42.5550   54.5670   37.9250 C.3   123  TYR123      0.0534
    191  CG        43.2690   55.9150   37.8770 C.ar  123  TYR123     -0.0201
    192  CD1       43.7170   56.5270   39.0440 C.ar  123  TYR123     -0.0009
    193  CD2       43.4310   56.5930   36.6760 C.ar  123  TYR123     -0.0009
    194  CE1       44.2940   57.7890   39.0280 C.ar  123  TYR123      0.0417
    195  CE2       44.0050   57.8440   36.6280 C.ar  123  TYR123      0.0417
    196  CZ        44.4280   58.4480   37.8190 C.ar  123  TYR123      0.1957
    197  OH        44.8920   59.7290   37.8130 O.3   123  TYR123     -0.2866
    198  N         43.1040   63.6280   35.8000 N.3   143  THR143     -0.1218
    199  CA        43.1830   62.9050   34.5450 C.3   143  THR143      0.1862
    200  C         41.9090   63.1860   33.7380 C.2   143  THR143      0.2287
    201  O         41.9670   63.5520   32.5510 O.2   143  THR143     -0.2866
    202  CB        43.3540   61.3730   34.7880 C.3   143  THR143      0.1770
    203  OG1       44.5880   61.1320   35.4810 O.3   143  THR143     -0.2211
    204  CG2       43.3820   60.6300   33.4610 C.3   143  THR143      0.0375
    205  N         42.0150   66.4410   32.0320 N.3   146  LYS146     -0.1231
    206  CA        42.9660   66.3490   30.9350 C.3   146  LYS146      0.1693
    207  C         42.2370   65.7710   29.7240 C.2   146  LYS146      0.2592
    208  O         42.2410   66.3620   28.6510 O.2   146  LYS146     -0.2718
    209  CB        44.1090   65.3970   31.2690 C.3   146  LYS146      0.0285
    210  CG        45.4190   66.0050   31.7260 C.3   146  LYS146      0.0035
    211  CD        46.4540   64.8890   31.7590 C.3   146  LYS146      0.0206
    212  CE        47.7770   65.2960   32.3790 C.3   146  LYS146      0.1093
    213  NZ        48.7690   64.1730   32.2590 N.3   146  LYS146     -0.1314
    214  N         41.6090   64.6140   29.9120 N.am  147  TRP147     -0.1976
    215  CA        40.9180   63.9280   28.8220 C.3   147  TRP147      0.1640
    216  C         39.7060   64.6640   28.2330 C.2   147  TRP147      0.2290
    217  O         39.3680   64.4850   27.0480 O.2   147  TRP147     -0.2864
    218  CB        40.5180   62.5200   29.2650 C.3   147  TRP147      0.0576
    219  CG        41.6960   61.5580   29.4290 C.ar  147  TRP147      0.0006
    220  CD1       43.0160   61.8200   29.2030 C.ar  147  TRP147      0.0946
    221  CD2       41.6380   60.1930   29.9090 C.ar  147  TRP147      0.0152
    222  NE1       43.7880   60.7090   29.5210 N.ar  147  TRP147     -0.2442
    223  CE2       42.9650   59.7080   29.9560 C.ar  147  TRP147      0.0810
    224  CE3       40.5930   59.3510   30.3040 C.ar  147  TRP147      0.0012
    225  CZ2       43.2700   58.4150   30.3860 C.ar  147  TRP147      0.0191
    226  CZ3       40.9020   58.0570   30.7320 C.ar  147  TRP147      0.0001
    227  CH2       42.2290   57.6070   30.7700 C.ar  147  TRP147      0.0015
    228  N         39.2220   63.0770   24.4190 N.3   152  VAL152     -0.1245
    229  CA        39.6070   61.6830   24.2250 C.3   152  VAL152      0.1561
    230  C         38.3880   60.7730   24.0070 C.2   152  VAL152      0.2260
    231  O         38.4150   59.9170   23.1190 O.2   152  VAL152     -0.2867
    232  CB        40.4440   61.1540   25.4040 C.3   152  VAL152      0.0252
    233  CG1       40.9030   59.7420   25.0990 C.3   152  VAL152      0.0019
    234  CG2       41.6590   62.0560   25.6340 C.3   152  VAL152      0.0019
    235  N         37.4580   60.5400   20.4220 N.3   155  GLN155     -0.1231
    236  CA        38.4290   59.8270   19.6250 C.3   155  GLN155      0.1698
    237  C         38.2840   58.3000   19.8860 C.2   155  GLN155      0.2592
    238  O         38.4530   57.4610   18.9790 O.2   155  GLN155     -0.2718
    239  CB        39.7730   60.3690   20.0480 C.3   155  GLN155      0.0381
    240  CG        40.9810   59.9110   19.3460 C.3   155  GLN155      0.0905
    241  CD        42.1520   60.7330   19.8200 C.2   155  GLN155      0.2608
    242  OE1       42.3290   60.9430   21.0250 O.2   155  GLN155     -0.2717
    243  NE2       42.9580   61.2150   18.8820 N.am  155  GLN155     -0.0878
    244  N         37.9410   57.9430   21.1220 N.am  156  LEU156     -0.1980
    245  CA        37.7610   56.5450   21.4770 C.3   156  LEU156      0.1596
    246  C         36.4510   56.0000   20.9300 C.2   156  LEU156      0.2287
    247  O         36.3630   54.8350   20.5350 O.2   156  LEU156     -0.2864
    248  CB        37.8230   56.3830   22.9910 C.3   156  LEU156      0.0297
    249  CG        39.2630   56.3820   23.5150 C.3   156  LEU156      0.0022
    250  CD1       39.2740   56.4520   25.0320 C.3   156  LEU156      0.0001
    251  CD2       39.9640   55.1210   23.0260 C.3   156  LEU156      0.0001
    252  N         36.8600   54.6320   17.4530 N.3   159  TYR159     -0.1241
    253  CA        37.5740   53.3630   17.4500 C.3   159  TYR159      0.1605
    254  C         36.7110   52.1990   17.9630 C.2   159  TYR159      0.2264
    255  O         36.6150   51.1630   17.3200 O.2   159  TYR159     -0.2867
    256  CB        38.8380   53.4910   18.3040 C.3   159  TYR159      0.0534
    257  CG        39.5040   52.1730   18.5730 C.ar  159  TYR159     -0.0201
    258  CD1       40.4070   51.6210   17.6620 C.ar  159  TYR159     -0.0009
    259  CD2       39.2030   51.4500   19.7270 C.ar  159  TYR159     -0.0009
    260  CE1       40.9900   50.3850   17.8950 C.ar  159  TYR159      0.0417
    261  CE2       39.7800   50.2220   19.9680 C.ar  159  TYR159      0.0417
    262  CZ        40.6730   49.6960   19.0480 C.ar  159  TYR159      0.1957
    263  OH        41.2370   48.4780   19.3010 O.3   159  TYR159     -0.2866
    264  N         36.4590   50.7760   14.1460 N.3   163  THR163     -0.1218
    265  CA        37.6160   49.9170   13.9980 C.3   163  THR163      0.1862
    266  C         37.5380   48.6460   14.8450 C.2   163  THR163      0.2287
    267  O         37.6130   47.5330   14.3130 O.2   163  THR163     -0.2866
    268  CB        38.8430   50.7440   14.3510 C.3   163  THR163      0.1770
    269  OG1       38.7660   51.9680   13.6130 O.3   163  THR163     -0.2211
    270  CG2       40.1450   50.0100   14.0140 C.3   163  THR163      0.0375
@<TRIPOS>BOND
     1    48    47    1
     2    48    49    2
     3    51    49    1
     4   269   268    1
     5    47    46    1
     6    49    50    1
     7   265   264    1
     8   265   268    1
     9   265   266    1
    10   270   268    1
    11   267   266    2
    12    32    33    1
    13    60    59    1
    14    40    38   ar
    15    59    58    1
    16    37    38    1
    17    37    36    1
    18    45    46    1
    19    45    42    1
    20    38    39   ar
    21    33    36    1
    22    33    34    1
    23    58    57    1
    24    41    42    1
    25    42    43    1
    26    57    56    1
    27    34    35    2
    28    27    26    2
    29    52    43   am
    30    52    53    1
    31   255   254    2
    32   253   252    1
    33   253   254    1
    34   253   256    1
    35    43    44    2
    36   258   260   ar
    37   258   257   ar
    38    56    53    1
    39   260   262   ar
    40    28    29    1
    41    28    25    1
    42    53    54    1
    43    26    25    1
    44   256   257    1
    45    12    11    1
    46    29    30    1
    47    24    25    1
    48   257   259   ar
    49   243   241   am
    50   238   237    2
    51   262   263    1
    52   262   261   ar
    53   240   241    1
    54   240   239    1
    55   236   237    1
    56   236   239    1
    57   236   235    1
    58    54    61   am
    59    54    55    2
    60   259   261   ar
    61    61    62    1
    62    11    10   ar
    63    11     9   ar
    64   241   242    2
    65    31    30    1
    66   237   244   am
    67    10     8   ar
    68   247   246    2
    69    66    65    1
    70    72    69    1
    71     9     7   ar
    72   246   245    1
    73    65    62    1
    74    65    67    1
    75   244   245    1
    76    62    63    1
    77    68    69    1
    78   245   248    1
    79     8     6   ar
    80    69    70    1
    81    81    79   ar
    82    81    82   ar
    83    63    64    2
    84     7     6   ar
    85   163   162    1
    86    79    78   ar
    87   160   162   ar
    88   160   158   ar
    89     6     5    1
    90    82    80   ar
    91   162   161   ar
    92   248   249    1
    93   251   249    1
    94    70    73   am
    95    70    71    2
    96   231   230    2
    97    73    74    1
    98   158   157   ar
    99   249   250    1
   100    78    80   ar
   101    78    77    1
   102   230   229    1
   103     5     2    1
   104   229   228    1
   105   229   232    1
   106   161   159   ar
   107    77    74    1
   108    74    75    1
   109    23    21   ar
   110    23    22   ar
   111   157   159   ar
   112   157   156    1
   113    88    87    1
   114    88    89    1
   115     1     2    1
   116   155   154    2
   117    21    19   ar
   118     2     3    1
   119   233   232    1
   120   154   153    1
   121    87    84    1
   122    98    96    1
   123   151   149    1
   124   232   234    1
   125    22    20   ar
   126    75    76    2
   127   156   153    1
   128    89    90    2
   129    89    91   am
   130   150   149    1
   131    83    84    1
   132   149   148    2
   133   153   152    1
   134    19    18   ar
   135   170   172   ar
   136   170   169   ar
   137    84    85    1
   138     3     4    2
   139   172   173   ar
   140    92    85   am
   141    92    93    1
   142    96    97    1
   143    96    93    1
   144    20    18   ar
   145   217   216    2
   146    85    86    2
   147   169   168    1
   148   169   171   ar
   149   168   165    1
   150   148   147    1
   151    18    17    1
   152    93    94    1
   153   173   171   ar
   154   164   165    1
   155   165   166    1
   156   147   146    1
   157   216   215    1
   158   208   207    2
   159    17    14    1
   160   215   218    1
   161   215   214    1
   162    94    95    2
   163   185   184    1
   164   146   145    1
   165   220   219   ar
   166   220   222   ar
   167    13    14    1
   168   218   219    1
   169    14    15    1
   170   219   221   ar
   171   222   223   ar
   172   166   167    2
   173   105   103    1
   174   207   214   am
   175   207   206    1
   176   144   143    2
   177   221   223   ar
   178   221   224   ar
   179   223   225   ar
   180   184   182   ar
   181   184   183   ar
   182   182   180   ar
   183   143   142    1
   184   224   226   ar
   185   145   142    1
   186   103   104    1
   187   103   100    1
   188   225   227   ar
   189   226   227   ar
   190    15    16    2
   191   206   209    1
   192   206   205    1
   193    99   100    1
   194   113   111   ar
   195   142   141    1
   196   209   210    1
   197   183   181   ar
   198   180   179   ar
   199   112   111   ar
   200   100   101    1
   201   111   110    1
   202   210   211    1
   203   211   212    1
   204   213   212    1
   205   106   101   am
   206   106   107    1
   207   181   179   ar
   208   101   102    2
   209   201   200    2
   210   179   178    1
   211   110   107    1
   212   107   108    1
   213   174   175    1
   214   204   202    1
   215   200   199    1
   216   178   175    1
   217   175   176    1
   218   119   118    1
   219   199   202    1
   220   199   198    1
   221   108   109    2
   222   202   203    1
   223   176   177    2
   224   118   120    1
   225   118   115    1
   226   140   139    1
   227   114   115    1
   228   115   116    1
   229   195   193   ar
   230   195   196   ar
   231   193   191   ar
   232   139   138   ar
   233   139   137   ar
   234   127   126    1
   235   138   136   ar
   236   126   128    1
   237   126   125    1
   238   137   135   ar
   239   188   189    2
   240   188   187    1
   241   116   121   am
   242   116   117    2
   243   197   196    1
   244   196   194   ar
   245   191   190    1
   246   191   192   ar
   247   121   122    1
   248   190   187    1
   249   136   134   ar
   250   187   186    1
   251   125   122    1
   252   135   134   ar
   253   194   192   ar
   254   122   123    1
   255   134   133    1
   256   123   124    2
   257   133   130    1
   258   129   130    1
   259   130   131    1
   260   131   132    2
