@<TRIPOS>MOLECULE
tmp/1dv2A00.pdb
 192 181 0 0 0
SMALL
GASTEIGER

@<TRIPOS>ATOM
      1  N         28.6780   24.9560   45.4070 N.3   119  LYS119     -0.1245
      2  CA        29.4970   24.8340   44.2260 C.3   119  LYS119      0.1561
      3  C         29.9550   23.4110   43.9220 C.2   119  LYS119      0.2260
      4  O         29.7570   22.8700   42.8260 O.2   119  LYS119     -0.2867
      5  CB        30.6260   25.8740   44.1800 C.3   119  LYS119      0.0271
      6  CG        30.2060   27.2700   43.6890 C.3   119  LYS119      0.0035
      7  CD        31.3230   28.3230   43.7050 C.3   119  LYS119      0.0206
      8  CE        30.8270   29.7670   43.5730 C.3   119  LYS119      0.1093
      9  NZ        31.8630   30.7830   43.8220 N.3   119  LYS119     -0.1314
     10  N         35.1150   23.4460   34.7540 N.3   134  VAL134     -0.1245
     11  CA        36.5060   23.8230   34.8730 C.3   134  VAL134      0.1561
     12  C         37.1550   22.6090   35.4810 C.2   134  VAL134      0.2260
     13  O         36.5560   21.9220   36.3070 O.2   134  VAL134     -0.2867
     14  CB        36.7950   24.9730   35.8220 C.3   134  VAL134      0.0252
     15  CG1       38.3130   25.0500   36.0330 C.3   134  VAL134      0.0019
     16  CG2       36.2490   26.2820   35.2710 C.3   134  VAL134      0.0019
     17  N         43.0370   28.1630   41.3680 N.3   160  ILE160     -0.1245
     18  CA        42.2120   29.0120   42.1700 C.3   160  ILE160      0.1561
     19  C         41.5980   28.1390   43.2070 C.2   160  ILE160      0.2260
     20  O         41.1090   27.0600   42.8980 O.2   160  ILE160     -0.2867
     21  CB        41.2120   29.8400   41.3190 C.3   160  ILE160      0.0252
     22  CG1       41.1100   31.2430   41.8090 C.3   160  ILE160      0.0019
     23  CG2       39.7700   29.3420   41.1880 C.3   160  ILE160      0.0019
     24  CD1       39.7230   31.7340   41.4510 C.3   160  ILE160      0.0001
     25  N         38.7790   27.9090   45.5770 N.3   162  LYS162     -0.1245
     26  CA        37.4470   28.4070   45.7770 C.3   162  LYS162      0.1561
     27  C         36.6880   27.6260   46.8550 C.2   162  LYS162      0.2260
     28  O         36.7770   26.4120   46.8620 O.2   162  LYS162     -0.2867
     29  CB        36.7420   28.0810   44.4460 C.3   162  LYS162      0.0271
     30  CG        36.5820   29.2240   43.4530 C.3   162  LYS162      0.0035
     31  CD        36.4480   28.7580   42.0320 C.3   162  LYS162      0.0206
     32  CE        35.2100   29.3020   41.3140 C.3   162  LYS162      0.1093
     33  NZ        34.5250   28.2960   40.4770 N.3   162  LYS162     -0.1314
     34  N         29.8190   30.2800   47.8460 N.3   166  GLY166     -0.1210
     35  CA        29.5350   31.3230   46.8880 C.3   166  GLY166      0.1956
     36  C         30.0900   32.6740   47.2760 C.2   166  GLY166      0.2612
     37  O         31.2520   32.9780   46.9940 O.2   166  GLY166     -0.2717
     38  N         29.2080   33.4820   47.8370 N.am  167  GLY167     -0.1942
     39  CA        29.5070   34.8100   48.3020 C.3   167  GLY167      0.2014
     40  C         29.4790   35.8540   47.2860 C.2   167  GLY167      0.2639
     41  O         28.6380   36.7200   47.2770 O.2   167  GLY167     -0.2714
     42  N         30.3780   35.8170   46.3650 N.am  168  GLY168     -0.1939
     43  CA        30.3480   36.8920   45.3990 C.3   168  GLY168      0.2014
     44  C         31.6910   37.5500   45.4100 C.2   168  GLY168      0.2639
     45  O         31.7370   38.6720   45.8890 O.2   168  GLY168     -0.2714
     46  N         32.7380   36.8890   44.8860 N.am  169  GLY169     -0.1954
     47  CA        34.0900   37.4150   44.8260 C.3   169  GLY169      0.1869
     48  C         34.8500   37.2330   46.1310 C.2   169  GLY169      0.2309
     49  O         36.0790   37.4750   46.1500 O.2   169  GLY169     -0.2863
     50  N         38.0230   33.4840   47.5410 N.3   172  MET172     -0.1245
     51  CA        38.8100   32.9960   46.4480 C.3   172  MET172      0.1570
     52  C         40.2610   33.4180   46.5330 C.2   172  MET172      0.2261
     53  O         40.5740   34.5190   46.9990 O.2   172  MET172     -0.2867
     54  CB        38.2370   33.3950   45.0670 C.3   172  MET172      0.0387
     55  CG        36.8050   32.9750   44.8800 C.3   172  MET172      0.0595
     56  SD        36.2080   33.3780   43.1970 S.3   172  MET172     -0.1393
     57  CE        34.6170   34.1190   43.6140 C.3   172  MET172      0.0692
     58  N         40.4520   24.5460   41.2530 N.3   204  GLU204     -0.1231
     59  CA        40.1880   24.4970   39.8490 C.3   204  GLU204      0.1699
     60  C         41.1740   25.3570   39.1120 C.2   204  GLU204      0.2592
     61  O         41.9480   26.0910   39.7150 O.2   204  GLU204     -0.2718
     62  CB        38.7380   24.7370   39.4550 C.3   204  GLU204      0.0402
     63  CG        38.3690   26.2190   39.4710 C.3   204  GLU204      0.1161
     64  CD        36.9840   26.4210   38.9480 C.2   204  GLU204      0.3649
     65  OE1       36.1490   25.5180   38.9020 O.co2 204  GLU204     -0.2457
     66  OE2       36.7870   27.6620   38.5440 O.co2 204  GLU204     -0.2457
     67  N         41.1870   25.2320   37.8050 N.am  205  LYS205     -0.1966
     68  CA        42.1630   26.0020   37.1210 C.3   205  LYS205      0.1728
     69  C         41.6960   27.4240   37.0680 C.2   205  LYS205      0.2616
     70  O         40.4860   27.6480   36.9420 O.2   205  LYS205     -0.2715
     71  CB        42.5410   25.4240   35.7450 C.3   205  LYS205      0.0311
     72  CG        43.3980   26.4110   34.9630 C.3   205  LYS205      0.0038
     73  CD        44.2600   25.7900   33.8780 C.3   205  LYS205      0.0206
     74  CE        45.7360   26.2040   33.9960 C.3   205  LYS205      0.1093
     75  NZ        46.7210   25.1650   33.5930 N.3   205  LYS205     -0.1314
     76  N         42.6630   28.3430   37.1260 N.am  206  TYR206     -0.1960
     77  CA        42.4380   29.7770   36.9840 C.3   206  TYR206      0.1771
     78  C         42.5320   30.1950   35.5110 C.2   206  TYR206      0.2619
     79  O         43.4560   29.8200   34.7740 O.2   206  TYR206     -0.2715
     80  CB        43.4060   30.5810   37.8310 C.3   206  TYR206      0.0574
     81  CG        43.1420   32.0420   37.7090 C.ar  206  TYR206     -0.0198
     82  CD1       41.8590   32.5720   37.8260 C.ar  206  TYR206     -0.0009
     83  CD2       44.2140   32.8970   37.4820 C.ar  206  TYR206     -0.0009
     84  CE1       41.6460   33.9440   37.6960 C.ar  206  TYR206      0.0417
     85  CE2       44.0210   34.2680   37.3300 C.ar  206  TYR206      0.0417
     86  CZ        42.7330   34.7830   37.4730 C.ar  206  TYR206      0.1957
     87  OH        42.5020   36.1270   37.3300 O.3   206  TYR206     -0.2866
     88  N         41.5460   30.9550   35.0660 N.am  207  LEU207     -0.1977
     89  CA        41.5020   31.3940   33.6920 C.3   207  LEU207      0.1596
     90  C         41.9010   32.8420   33.5760 C.2   207  LEU207      0.2287
     91  O         41.3220   33.7200   34.2170 O.2   207  LEU207     -0.2864
     92  CB        40.1850   31.0900   32.9580 C.3   207  LEU207      0.0297
     93  CG        40.1180   29.6430   32.5010 C.3   207  LEU207      0.0022
     94  CD1       40.5680   28.7900   33.6530 C.3   207  LEU207      0.0001
     95  CD2       38.6840   29.2390   32.2610 C.3   207  LEU207      0.0001
     96  N         39.3920   35.1610   29.9190 N.3   210  PRO210     -0.2116
     97  CA        38.1640   34.5580   29.4880 C.3   210  PRO210      0.1372
     98  C         37.0970   35.6280   29.5500 C.2   210  PRO210      0.2244
     99  O         37.3030   36.6870   30.1430 O.2   210  PRO210     -0.2868
    100  CB        37.8430   33.5710   30.5970 C.3   210  PRO210      0.0268
    101  CG        38.3240   34.2590   31.8660 C.3   210  PRO210      0.0207
    102  CD        39.3570   35.2740   31.4020 C.3   210  PRO210      0.0892
    103  N         32.7720   36.2800   29.9080 N.3   212  HIS212     -0.1241
    104  CA        31.7110   35.7260   30.6820 C.3   212  HIS212      0.1621
    105  C         30.4930   35.5070   29.8220 C.2   212  HIS212      0.2264
    106  O         29.8280   36.4330   29.4170 O.2   212  HIS212     -0.2867
    107  CB        31.4330   36.6610   31.8550 C.3   212  HIS212      0.0745
    108  CG        30.2320   36.2270   32.5960 C.ar  212  HIS212      0.0817
    109  ND1       30.3490   35.6860   33.8550 N.ar  212  HIS212     -0.2268
    110  CD2       28.9250   36.2610   32.2430 C.ar  212  HIS212      0.1154
    111  CE1       29.1220   35.4130   34.2420 C.ar  212  HIS212      0.1986
    112  NE2       28.2340   35.7530   33.2990 N.ar  212  HIS212     -0.2212
    113  N         32.7760   44.1570   33.4610 N.3   236  GLN236     -0.1245
    114  CA        32.7650   44.2210   34.9030 C.3   236  GLN236      0.1566
    115  C         33.7070   45.2290   35.4530 C.2   236  GLN236      0.2260
    116  O         34.7760   45.5060   34.8990 O.2   236  GLN236     -0.2867
    117  CB        33.2080   42.8810   35.5020 C.3   236  GLN236      0.0367
    118  CG        32.0420   41.9380   35.8220 C.3   236  GLN236      0.0905
    119  CD        32.4080   40.4770   35.7200 C.2   236  GLN236      0.2608
    120  OE1       33.2290   39.9600   36.5100 O.2   236  GLN236     -0.2717
    121  NE2       31.7980   39.8120   34.7270 N.am  236  GLN236     -0.0878
    122  N         33.7110   43.0960   39.8580 N.3   239  HIS239     -0.1241
    123  CA        32.7000   42.0550   39.9880 C.3   239  HIS239      0.1621
    124  C         31.2460   42.5390   39.7910 C.2   239  HIS239      0.2264
    125  O         30.2590   41.8000   39.7100 O.2   239  HIS239     -0.2867
    126  CB        32.9560   41.1500   41.2160 C.3   239  HIS239      0.0745
    127  CG        32.2290   39.8300   41.2100 C.ar  239  HIS239      0.0817
    128  ND1       32.2720   38.9430   40.1420 N.ar  239  HIS239     -0.2268
    129  CD2       31.4070   39.2980   42.1640 C.ar  239  HIS239      0.1154
    130  CE1       31.5010   37.9050   40.4720 C.ar  239  HIS239      0.1986
    131  NE2       30.9770   38.0860   41.6850 N.ar  239  HIS239     -0.2212
    132  N         28.4440   43.7910   37.4710 N.3   241  LYS241     -0.1245
    133  CA        28.1740   43.8610   36.0280 C.3   241  LYS241      0.1561
    134  C         27.7400   45.2570   35.6400 C.2   241  LYS241      0.2260
    135  O         27.0950   45.9620   36.4300 O.2   241  LYS241     -0.2867
    136  CB        27.1910   42.8160   35.5090 C.3   241  LYS241      0.0271
    137  CG        27.6070   41.3830   35.8970 C.3   241  LYS241      0.0035
    138  CD        26.7720   40.2250   35.3290 C.3   241  LYS241      0.0206
    139  CE        26.2720   39.2350   36.3710 C.3   241  LYS241      0.1093
    140  NZ        26.0880   37.8870   35.8200 N.3   241  LYS241     -0.1314
    141  N         26.0720   30.2050   34.0930 N.3   279  GLU279     -0.1245
    142  CA        27.2460   31.0670   34.0030 C.3   279  GLU279      0.1567
    143  C         28.5040   30.3150   33.4940 C.2   279  GLU279      0.2260
    144  O         28.9340   29.2980   34.0470 O.2   279  GLU279     -0.2867
    145  CB        27.4870   31.6600   35.4060 C.3   279  GLU279      0.0388
    146  CG        26.5100   32.7890   35.8040 C.3   279  GLU279      0.1160
    147  CD        27.0920   33.7870   36.8120 C.2   279  GLU279      0.3649
    148  OE1       28.1650   33.6220   37.4000 O.co2 279  GLU279     -0.2457
    149  OE2       26.3250   34.8440   37.0080 O.co2 279  GLU279     -0.2457
    150  N         32.5610   30.6430   31.8660 N.3   281  LEU281     -0.1245
    151  CA        33.7180   31.4050   31.5750 C.3   281  LEU281      0.1561
    152  C         34.0140   30.9830   30.1240 C.2   281  LEU281      0.2260
    153  O         33.7760   29.8280   29.7360 O.2   281  LEU281     -0.2867
    154  CB        34.8050   30.9600   32.5700 C.3   281  LEU281      0.0270
    155  CG        35.5010   32.0760   33.3510 C.3   281  LEU281      0.0019
    156  CD1       34.6830   33.3500   33.4780 C.3   281  LEU281      0.0001
    157  CD2       35.7310   31.5970   34.7610 C.3   281  LEU281      0.0001
    158  N         30.9490   27.7210   35.7890 N.3   290  ILE290     -0.1231
    159  CA        31.3610   28.4290   36.9860 C.3   290  ILE290      0.1692
    160  C         30.3150   28.2110   38.0620 C.2   290  ILE290      0.2591
    161  O         30.6100   27.8400   39.2060 O.2   290  ILE290     -0.2718
    162  CB        31.5300   29.9210   36.7050 C.3   290  ILE290      0.0266
    163  CG1       32.2910   30.1690   35.4160 C.3   290  ILE290      0.0019
    164  CG2       32.2120   30.6370   37.8470 C.3   290  ILE290      0.0020
    165  CD1       31.6540   31.2880   34.5940 C.3   290  ILE290      0.0001
    166  N         29.0650   28.4330   37.6590 N.am  291  LYS291     -0.1980
    167  CA        27.9520   28.2700   38.5750 C.3   291  LYS291      0.1596
    168  C         26.5860   28.2520   37.9160 C.2   291  LYS291      0.2287
    169  O         26.4640   28.2130   36.7050 O.2   291  LYS291     -0.2864
    170  CB        27.9950   29.3190   39.6710 C.3   291  LYS291      0.0298
    171  CG        27.6110   30.7460   39.2950 C.3   291  LYS291      0.0038
    172  CD        27.5030   31.6030   40.5640 C.3   291  LYS291      0.0206
    173  CE        27.6690   33.1000   40.3480 C.3   291  LYS291      0.1093
    174  NZ        26.5670   33.8960   40.9070 N.3   291  LYS291     -0.1314
    175  N         36.6150   40.1210   30.8180 N.3   440  ILE440     -0.1231
    176  CA        36.1690   40.6230   32.0870 C.3   440  ILE440      0.1692
    177  C         37.2350   41.5030   32.7360 C.2   440  ILE440      0.2592
    178  O         37.0840   42.1000   33.7930 O.2   440  ILE440     -0.2718
    179  CB        35.8290   39.4040   32.8980 C.3   440  ILE440      0.0266
    180  CG1       37.1170   38.6620   33.1280 C.3   440  ILE440      0.0019
    181  CG2       34.9430   38.4890   32.0670 C.3   440  ILE440      0.0020
    182  CD1       36.9530   37.6810   34.2800 C.3   440  ILE440      0.0001
    183  N         38.3560   41.6470   32.0590 N.am  441  HIS441     -0.1976
    184  CA        39.3740   42.4750   32.6510 C.3   441  HIS441      0.1656
    185  C         39.4650   43.8360   32.0150 C.2   441  HIS441      0.2291
    186  O         40.0750   44.7570   32.5810 O.2   441  HIS441     -0.2864
    187  CB        40.7220   41.7760   32.6280 C.3   441  HIS441      0.0771
    188  CG        40.7030   40.5480   33.4630 C.ar  441  HIS441      0.0820
    189  ND1       40.1190   40.5410   34.7160 N.ar  441  HIS441     -0.2267
    190  CD2       41.2020   39.2950   33.2170 C.ar  441  HIS441      0.1154
    191  CE1       40.2780   39.3030   35.1970 C.ar  441  HIS441      0.1986
    192  NE2       40.9190   38.5210   34.3220 N.ar  441  HIS441     -0.2212
@<TRIPOS>BOND
     1   106   105    2
     2    97    98    1
     3    97    96    1
     4    97   100    1
     5    98    99    2
     6   153   152    2
     7   105   104    1
     8   103   104    1
     9    96   102    1
    10   152   151    1
    11   100   101    1
    12   104   107    1
    13   175   176    1
    14   102   101    1
    15   151   150    1
    16   151   154    1
    17   107   108    1
    18   185   186    2
    19   185   184    1
    20   183   184    1
    21   183   177   am
    22   181   179    1
    23   176   177    1
    24   176   179    1
    25   110   108   ar
    26   110   112   ar
    27    95    93    1
    28    93    92    1
    29    93    94    1
    30   154   155    1
    31   108   109   ar
    32   187   184    1
    33   187   188    1
    34   177   178    2
    35   179   180    1
    36    92    89    1
    37   180   182    1
    38   190   188   ar
    39   190   192   ar
    40   112   111   ar
    41   155   156    1
    42   155   157    1
    43   113   114    1
    44   188   189   ar
    45   143   142    1
    46   143   144    2
    47    90    89    1
    48    90    91    2
    49    75    74    1
    50    89    88    1
    51   109   111   ar
    52    73    74    1
    53    73    72    1
    54   142   141    1
    55   142   145    1
    56   192   191   ar
    57   165   163    1
    58   189   191   ar
    59   121   119   am
    60    10    11    1
    61    79    78    2
    62    11    12    1
    63    11    14    1
    64   116   115    2
    65   114   115    1
    66   114   117    1
    67    72    71    1
    68    88    78   am
    69    16    14    1
    70   138   137    1
    71   138   139    1
    72   145   146    1
    73   163   162    1
    74    12    13    2
    75   117   118    1
    76   136   137    1
    77   136   133    1
    78    78    77    1
    79   134   133    1
    80   134   135    2
    81   119   118    1
    82   119   120    2
    83    71    68    1
    84   158   159    1
    85   146   147    1
    86   140   139    1
    87    14    15    1
    88   133   132    1
    89   162   159    1
    90   162   164    1
    91   169   168    2
    92   147   149   ar
    93   147   148   ar
    94    70    69    2
    95    77    76    1
    96    77    80    1
    97   159   160    1
    98    69    68    1
    99    69    76   am
   100    68    67    1
   101    87    86    1
   102    85    86   ar
   103    85    83   ar
   104    86    84   ar
   105    83    81   ar
   106   166   160   am
   107   166   167    1
   108    84    82   ar
   109    81    82   ar
   110    81    80    1
   111    67    60   am
   112   168   167    1
   113   160   161    2
   114    66    64   ar
   115   167   170    1
   116    65    64   ar
   117    64    63    1
   118    60    61    2
   119    60    59    1
   120   171   170    1
   121   171   172    1
   122    62    63    1
   123    62    59    1
   124   125   124    2
   125   124   123    1
   126    59    58    1
   127   122   123    1
   128   123   126    1
   129   128   130   ar
   130   128   127   ar
   131   173   172    1
   132   173   174    1
   133   130   131   ar
   134    33    32    1
   135    23    21    1
   136   127   126    1
   137   127   129   ar
   138    32    31    1
   139    21    22    1
   140    21    18    1
   141    17    18    1
   142    24    22    1
   143   131   129   ar
   144    31    30    1
   145    18    19    1
   146     4     3    2
   147    20    19    2
   148    56    57    1
   149    56    55    1
   150    30    29    1
   151     8     7    1
   152     8     9    1
   153     6     7    1
   154     6     5    1
   155     3     2    1
   156     5     2    1
   157     2     1    1
   158    29    26    1
   159    47    46    1
   160    47    48    1
   161    55    54    1
   162    46    44   am
   163    54    51    1
   164    43    44    1
   165    43    42    1
   166    44    45    2
   167    25    26    1
   168    26    27    1
   169    48    49    2
   170    42    40   am
   171    51    52    1
   172    51    50    1
   173    52    53    2
   174    27    28    2
   175    35    36    1
   176    35    34    1
   177    37    36    2
   178    36    38   am
   179    41    40    2
   180    40    39    1
   181    38    39    1
