@<TRIPOS>MOLECULE
tmp/1dv6E07.pdb
 149 149 0 0 0
SMALL
GASTEIGER

@<TRIPOS>ATOM
      1  N         31.0200   63.2660   23.0190 N.3    64  TRP64      -0.1227
      2  CA        29.6640   62.9300   23.4310 C.3    64  TRP64       0.1737
      3  C         29.5640   63.2160   24.9180 C.2    64  TRP64       0.2595
      4  O         28.6460   63.8840   25.3900 O.2    64  TRP64      -0.2718
      5  CB        29.3970   61.4430   23.1640 C.3    64  TRP64       0.0564
      6  CG        28.1370   60.8980   23.7970 C.ar   64  TRP64       0.0003
      7  CD1       26.8560   61.3280   23.5880 C.ar   64  TRP64       0.0946
      8  CD2       28.0460   59.8060   24.7240 C.ar   64  TRP64       0.0152
      9  NE1       25.9740   60.5750   24.3230 N.ar   64  TRP64      -0.2442
     10  CE2       26.6720   59.6330   25.0300 C.ar   64  TRP64       0.0810
     11  CE3       28.9900   58.9550   25.3290 C.ar   64  TRP64       0.0012
     12  CZ2       26.2170   58.6430   25.9140 C.ar   64  TRP64       0.0191
     13  CZ3       28.5360   57.9660   26.2140 C.ar   64  TRP64       0.0001
     14  CH2       27.1590   57.8220   26.4940 C.ar   64  TRP64       0.0015
     15  N         30.5390   62.7060   25.6500 N.am   65  PHE65      -0.1976
     16  CA        30.6030   62.8870   27.0890 C.3    65  PHE65       0.1639
     17  C         30.7140   64.3760   27.4340 C.2    65  PHE65       0.2290
     18  O         29.9940   64.8880   28.2940 O.2    65  PHE65      -0.2864
     19  CB        31.8140   62.1350   27.6210 C.3    65  PHE65       0.0560
     20  CG        31.7670   61.8870   29.0790 C.ar   65  PHE65      -0.0200
     21  CD1       30.8900   60.9430   29.6020 C.ar   65  PHE65      -0.0042
     22  CD2       32.5940   62.6030   29.9420 C.ar   65  PHE65      -0.0042
     23  CE1       30.8330   60.7100   30.9770 C.ar   65  PHE65      -0.0003
     24  CE2       32.5490   62.3820   31.3190 C.ar   65  PHE65      -0.0003
     25  CZ        31.6650   61.4310   31.8400 C.ar   65  PHE65      -0.0000
     26  N         27.4230   66.3810   27.0390 N.3    68  ILE68      -0.1231
     27  CA        26.5140   66.1300   28.1510 C.3    68  ILE68       0.1692
     28  C         27.0470   66.8690   29.3760 C.2    68  ILE68       0.2592
     29  O         26.2960   67.5360   30.0980 O.2    68  ILE68      -0.2718
     30  CB        26.4210   64.6180   28.4830 C.3    68  ILE68       0.0266
     31  CG1       25.8920   63.8380   27.2810 C.3    68  ILE68       0.0019
     32  CG2       25.5000   64.4080   29.6640 C.3    68  ILE68       0.0020
     33  CD1       25.9300   62.3440   27.4500 C.3    68  ILE68       0.0001
     34  N         28.3550   66.7600   29.5910 N.am   69  GLY69      -0.1957
     35  CA        28.9790   67.4110   30.7280 C.3    69  GLY69       0.1869
     36  C         28.7830   68.9120   30.7970 C.2    69  GLY69       0.2309
     37  O         28.4940   69.4520   31.8640 O.2    69  GLY69      -0.2863
     38  N         25.2840   69.8300   31.8560 N.3    72  PHE72      -0.1241
     39  CA        25.1120   69.5650   33.2810 C.3    72  PHE72       0.1605
     40  C         25.7100   70.7110   34.0980 C.2    72  PHE72       0.2264
     41  O         25.1080   71.1670   35.0730 O.2    72  PHE72      -0.2867
     42  CB        25.7630   68.2360   33.6630 C.3    72  PHE72       0.0534
     43  CG        24.9220   67.0320   33.3460 C.ar   72  PHE72      -0.0203
     44  CD1       23.9220   67.0920   32.3760 C.ar   72  PHE72      -0.0042
     45  CD2       25.1490   65.8210   33.9950 C.ar   72  PHE72      -0.0042
     46  CE1       23.1600   65.9630   32.0550 C.ar   72  PHE72      -0.0003
     47  CE2       24.3910   64.6850   33.6790 C.ar   72  PHE72      -0.0003
     48  CZ        23.3980   64.7610   32.7080 C.ar   72  PHE72      -0.0000
     49  N         26.8500   70.7700   41.2550 N.3    83  PHE83      -0.1241
     50  CA        27.0550   69.7820   40.2060 C.3    83  PHE83       0.1605
     51  C         27.1060   68.3650   40.7740 C.2    83  PHE83       0.2264
     52  O         26.5800   67.4360   40.1670 O.2    83  PHE83      -0.2867
     53  CB        28.3620   70.0660   39.4680 C.3    83  PHE83       0.0534
     54  CG        28.7230   69.0240   38.4400 C.ar   83  PHE83      -0.0203
     55  CD1       28.2740   69.1370   37.1250 C.ar   83  PHE83      -0.0042
     56  CD2       29.5220   67.9320   38.7860 C.ar   83  PHE83      -0.0042
     57  CE1       28.6180   68.1780   36.1660 C.ar   83  PHE83      -0.0003
     58  CE2       29.8710   66.9720   37.8420 C.ar   83  PHE83      -0.0003
     59  CZ        29.4200   67.0930   36.5280 C.ar   83  PHE83      -0.0000
     60  N         24.0150   65.6690   40.4570 N.3    87  LEU87      -0.1245
     61  CA        24.5210   64.9170   39.3150 C.3    87  LEU87       0.1561
     62  C         23.5430   63.9150   38.6890 C.2    87  LEU87       0.2260
     63  O         23.4390   63.8410   37.4660 O.2    87  LEU87      -0.2867
     64  CB        25.8090   64.1910   39.7030 C.3    87  LEU87       0.0270
     65  CG        26.4240   63.3550   38.5840 C.3    87  LEU87       0.0019
     66  CD1       26.8530   64.2550   37.4380 C.3    87  LEU87       0.0001
     67  CD2       27.6140   62.5800   39.1370 C.3    87  LEU87       0.0001
     68  N         27.7520   60.3360   19.7220 N.3   120  MET120     -0.1245
     69  CA        27.5850   58.9680   20.1760 C.3   120  MET120      0.1570
     70  C         27.4010   58.0450   18.9780 C.2   120  MET120      0.2261
     71  O         27.9350   56.9430   18.9560 O.2   120  MET120     -0.2867
     72  CB        26.3860   58.8480   21.1180 C.3   120  MET120      0.0387
     73  CG        26.0910   57.4130   21.5270 C.3   120  MET120      0.0595
     74  SD        24.8780   57.2870   22.8650 S.3   120  MET120     -0.1393
     75  CE        23.3490   57.8040   21.9850 C.3   120  MET120      0.0692
     76  N         19.9480   49.7070   20.7500 N.3   155  TRP155     -0.1241
     77  CA        20.3610   51.1030   20.8990 C.3   155  TRP155      0.1605
     78  C         19.8510   51.9510   19.7410 C.2   155  TRP155      0.2264
     79  O         19.3250   53.0500   19.9560 O.2   155  TRP155     -0.2867
     80  CB        21.8900   51.2000   20.9780 C.3   155  TRP155      0.0550
     81  CG        22.4330   52.5980   20.7810 C.ar  155  TRP155      0.0003
     82  CD1       22.2440   53.6830   21.5940 C.ar  155  TRP155      0.0946
     83  CD2       23.2270   53.0580   19.6770 C.ar  155  TRP155      0.0152
     84  NE1       22.8710   54.7890   21.0590 N.ar  155  TRP155     -0.2442
     85  CE2       23.4800   54.4330   19.8850 C.ar  155  TRP155      0.0810
     86  CE3       23.7480   52.4400   18.5300 C.ar  155  TRP155      0.0012
     87  CZ2       24.2310   55.1980   18.9910 C.ar  155  TRP155      0.0191
     88  CZ3       24.4930   53.2070   17.6400 C.ar  155  TRP155      0.0001
     89  CH2       24.7270   54.5690   17.8780 C.ar  155  TRP155      0.0015
     90  N         15.9810   52.4890   19.8520 N.3   158  LEU158     -0.1231
     91  CA        15.6200   53.4290   20.9030 C.3   158  LEU158      0.1693
     92  C         15.8650   54.8970   20.5680 C.2   158  LEU158      0.2592
     93  O         14.9910   55.7360   20.7760 O.2   158  LEU158     -0.2718
     94  CB        16.3770   53.0860   22.1910 C.3   158  LEU158      0.0284
     95  CG        15.9240   51.8580   22.9910 C.3   158  LEU158      0.0019
     96  CD1       16.9960   51.4850   24.0060 C.3   158  LEU158      0.0001
     97  CD2       14.5990   52.1630   23.7010 C.3   158  LEU158      0.0001
     98  N         17.0430   55.2210   20.0490 N.am  159  GLY159     -0.1957
     99  CA        17.3330   56.6170   19.7690 C.3   159  GLY159      0.1869
    100  C         17.3180   57.0870   18.3280 C.2   159  GLY159      0.2309
    101  O         17.5160   58.2780   18.0740 O.2   159  GLY159     -0.2863
    102  N         15.3970   58.8580   23.8660 N.3   173  VAL173     -0.1231
    103  CA        15.7950   58.8270   25.2760 C.3   173  VAL173      0.1678
    104  C         16.7440   59.9720   25.6280 C.2   173  VAL173      0.2434
    105  O         17.6720   60.2610   24.8800 O.2   173  VAL173     -0.2733
    106  CB        16.4920   57.4920   25.5980 C.3   173  VAL173      0.0265
    107  CG1       16.6400   57.3290   27.0970 C.3   173  VAL173      0.0020
    108  CG2       15.6950   56.3400   25.0020 C.3   173  VAL173      0.0020
    109  N         16.5180   60.6410   26.7690 N.am  174  PRO174     -0.2718
    110  CA        17.3680   61.7540   27.2070 C.3   174  PRO174      0.1535
    111  C         18.6210   61.2460   27.9280 C.2   174  PRO174      0.2599
    112  O         18.6470   60.1010   28.3890 O.2   174  PRO174     -0.2715
    113  CB        16.4540   62.5130   28.1500 C.3   174  PRO174      0.0310
    114  CG        15.7360   61.3810   28.8490 C.3   174  PRO174      0.0237
    115  CD        15.3850   60.4530   27.6980 C.3   174  PRO174      0.0939
    116  N         19.6440   62.0970   28.0370 N.am  175  TYR175     -0.1960
    117  CA        20.8850   61.7220   28.7230 C.3   175  TYR175      0.1771
    118  C         20.8600   62.1790   30.1770 C.2   175  TYR175      0.2620
    119  O         21.0510   63.3620   30.4750 O.2   175  TYR175     -0.2715
    120  CB        22.1060   62.3220   28.0110 C.3   175  TYR175      0.0574
    121  CG        22.2320   61.8840   26.5680 C.ar  175  TYR175     -0.0198
    122  CD1       22.5940   60.5740   26.2360 C.ar  175  TYR175     -0.0009
    123  CD2       21.9330   62.7650   25.5310 C.ar  175  TYR175     -0.0009
    124  CE1       22.6470   60.1590   24.9000 C.ar  175  TYR175      0.0417
    125  CE2       21.9840   62.3570   24.1970 C.ar  175  TYR175      0.0417
    126  CZ        22.3370   61.0570   23.8910 C.ar  175  TYR175      0.1957
    127  OH        22.3500   60.6650   22.5750 O.3   175  TYR175     -0.2866
    128  N         20.6160   61.2240   31.0730 N.am  176  GLY176     -0.1940
    129  CA        20.5640   61.5000   32.5000 C.3   176  GLY176      0.2014
    130  C         20.4300   60.1920   33.2600 C.2   176  GLY176      0.2638
    131  O         19.8410   59.2310   32.7570 O.2   176  GLY176     -0.2714
    132  N         20.9760   60.1320   34.4650 N.am  177  ILE177     -0.1977
    133  CA        20.8900   58.9090   35.2490 C.3   177  ILE177      0.1596
    134  C         19.4490   58.5770   35.6260 C.2   177  ILE177      0.2287
    135  O         18.9310   57.5160   35.2720 O.2   177  ILE177     -0.2864
    136  CB        21.7440   59.0130   36.5270 C.3   177  ILE177      0.0276
    137  CG1       23.1960   59.3180   36.1390 C.3   177  ILE177      0.0022
    138  CG2       21.6650   57.7090   37.3180 C.3   177  ILE177      0.0022
    139  CD1       23.7470   58.3580   35.0940 C.3   177  ILE177      0.0001
    140  N         16.6050   58.8860   32.3930 N.3   180  HIS180     -0.1241
    141  CA        16.3730   57.7720   31.4700 C.3   180  HIS180      0.1621
    142  C         15.6020   56.6430   32.1450 C.2   180  HIS180      0.2264
    143  O         15.0050   55.8120   31.4690 O.2   180  HIS180     -0.2867
    144  CB        17.6860   57.2950   30.7740 C.3   180  HIS180      0.0745
    145  CG        18.4190   56.1720   31.4570 C.ar  180  HIS180      0.0817
    146  ND1       19.0250   56.3310   32.6830 N.ar  180  HIS180     -0.2268
    147  CD2       18.6770   54.9250   30.9900 C.ar  180  HIS180      0.1154
    148  CE1       19.6380   55.1880   32.9310 C.ar  180  HIS180      0.1986
    149  NE2       19.4600   54.3030   31.9370 N.ar  180  HIS180     -0.2212
@<TRIPOS>BOND
     1    88    89   ar
     2    88    86   ar
     3    89    87   ar
     4   101   100    2
     5   100    99    1
     6    86    83   ar
     7    71    70    2
     8    70    69    1
     9    87    85   ar
    10    83    85   ar
    11    83    81   ar
    12    68    69    1
    13    78    79    2
    14    78    77    1
    15    99    98    1
    16    90    91    1
    17    85    84   ar
    18    98    92   am
    19    69    72    1
    20    92    93    2
    21    92    91    1
    22    76    77    1
    23    81    80    1
    24    81    82   ar
    25    77    80    1
    26    91    94    1
    27    84    82   ar
    28    72    73    1
    29    73    74    1
    30    75    74    1
    31    94    95    1
    32   127   126    1
    33    95    97    1
    34    95    96    1
    35     1     2    1
    36     5     2    1
    37     5     6    1
    38     2     3    1
    39     7     6   ar
    40     7     9   ar
    41     6     8   ar
    42   102   103    1
    43   126   125   ar
    44   126   124   ar
    45   125   123   ar
    46     9    10   ar
    47     8    10   ar
    48     8    11   ar
    49   105   104    2
    50   124   122   ar
    51     3     4    2
    52     3    15   am
    53   108   106    1
    54    10    12   ar
    55   103   106    1
    56   103   104    1
    57    11    13   ar
    58   123   121   ar
    59   106   107    1
    60   104   109   am
    61    15    16    1
    62    12    14   ar
    63    13    14   ar
    64   122   121   ar
    65   121   120    1
    66   109   110    1
    67   109   115    1
    68    26    27    1
    69    16    17    1
    70    16    19    1
    71   110   111    1
    72   110   113    1
    73    31    33    1
    74    31    30    1
    75    17    18    2
    76    19    20    1
    77   115   114    1
    78   111   116   am
    79   111   112    2
    80   120   117    1
    81   116   117    1
    82   113   114    1
    83    27    30    1
    84    27    28    1
    85    30    32    1
    86   117   118    1
    87    20    21   ar
    88    20    22   ar
    89    28    34   am
    90    28    29    2
    91    34    35    1
    92    21    23   ar
    93    22    24   ar
    94   118   119    2
    95   118   128   am
    96    35    36    1
    97   144   145    1
    98   144   141    1
    99    36    37    2
   100    23    25   ar
   101   147   145   ar
   102   147   149   ar
   103   128   129    1
   104    24    25   ar
   105   145   146   ar
   106   143   142    2
   107   141   142    1
   108   141   140    1
   109    38    39    1
   110   149   148   ar
   111    46    44   ar
   112    46    48   ar
   113    44    43   ar
   114   129   130    1
   115   146   148   ar
   116    48    47   ar
   117   131   130    2
   118   130   132   am
   119    39    42    1
   120    39    40    1
   121    43    42    1
   122    43    45   ar
   123    47    45   ar
   124    40    41    2
   125   132   133    1
   126   139   137    1
   127   133   134    1
   128   133   136    1
   129   135   134    2
   130   137   136    1
   131    57    59   ar
   132    57    55   ar
   133   136   138    1
   134    59    58   ar
   135    55    54   ar
   136    66    65    1
   137    63    62    2
   138    58    56   ar
   139    54    56   ar
   140    54    53    1
   141    65    67    1
   142    65    64    1
   143    62    61    1
   144    61    64    1
   145    61    60    1
   146    53    50    1
   147    52    51    2
   148    50    51    1
   149    50    49    1
