@<TRIPOS>MOLECULE
tmp/1dv6B00.pdb
 129 131 0 0 0
SMALL
GASTEIGER

@<TRIPOS>ATOM
      1  N         71.3470  102.4280   64.5130 N.3    64  TRP64      -0.1241
      2  CA        69.9950  102.2210   64.0040 C.3    64  TRP64       0.1605
      3  C         69.9180  100.7970   63.4800 C.2    64  TRP64       0.2264
      4  O         69.0110  100.0370   63.8030 O.2    64  TRP64      -0.2867
      5  CB        69.7110  103.2120   62.8670 C.3    64  TRP64       0.0550
      6  CG        68.4520  102.9380   62.0680 C.ar   64  TRP64       0.0003
      7  CD1       67.1750  102.8970   62.5370 C.ar   64  TRP64       0.0946
      8  CD2       68.3680  102.6910   60.6570 C.ar   64  TRP64       0.0152
      9  NE1       66.2980  102.6420   61.5120 N.ar   64  TRP64      -0.2442
     10  CE2       67.0020  102.5110   60.3460 C.ar   64  TRP64       0.0810
     11  CE3       69.3150  102.6040   59.6270 C.ar   64  TRP64       0.0012
     12  CZ2       66.5540  102.2490   59.0470 C.ar   64  TRP64       0.0191
     13  CZ3       68.8720  102.3430   58.3340 C.ar   64  TRP64       0.0001
     14  CH2       67.4980  102.1680   58.0550 C.ar   64  TRP64       0.0015
     15  N         67.8310   97.3110   65.1020 N.3    68  ILE68      -0.1245
     16  CA        66.9360   96.4750   64.3000 C.3    68  ILE68       0.1561
     17  C         67.4680   95.0460   64.2900 C.2    68  ILE68       0.2260
     18  O         66.7130   94.0810   64.4430 O.2    68  ILE68      -0.2867
     19  CB        66.8500   96.9720   62.8390 C.3    68  ILE68       0.0252
     20  CG1       66.2870   98.3900   62.8000 C.3    68  ILE68       0.0019
     21  CG2       65.9450   96.0650   62.0200 C.3    68  ILE68       0.0019
     22  CD1       66.3100   99.0120   61.4130 C.3    68  ILE68       0.0001
     23  N         61.5900  100.1360   68.9000 N.3   113  TRP113     -0.1241
     24  CA        61.2660  100.8620   67.6870 C.3   113  TRP113      0.1605
     25  C         61.5670  102.3560   67.8780 C.2   113  TRP113      0.2264
     26  O         62.1230  103.0040   66.9890 O.2   113  TRP113     -0.2867
     27  CB        59.7930  100.6790   67.3370 C.3   113  TRP113      0.0550
     28  CG        59.3940  101.3720   66.0650 C.ar  113  TRP113      0.0003
     29  CD1       59.3890  100.8390   64.8060 C.ar  113  TRP113      0.0946
     30  CD2       58.9650  102.7340   65.9260 C.ar  113  TRP113      0.0152
     31  NE1       58.9830  101.7840   63.8960 N.ar  113  TRP113     -0.2442
     32  CE2       58.7180  102.9560   64.5550 C.ar  113  TRP113      0.0810
     33  CE3       58.7660  103.7850   66.8290 C.ar  113  TRP113      0.0012
     34  CZ2       58.2810  104.1900   64.0600 C.ar  113  TRP113      0.0191
     35  CZ3       58.3340  105.0130   66.3400 C.ar  113  TRP113      0.0001
     36  CH2       58.0960  105.2050   64.9660 C.ar  113  TRP113      0.0015
     37  N         68.0150  106.7080   63.6910 N.3   120  MET120     -0.1245
     38  CA        67.8550  107.0170   62.2860 C.3   120  MET120      0.1570
     39  C         67.6540  108.5160   62.1180 C.2   120  MET120      0.2261
     40  O         68.1920  109.1230   61.2040 O.2   120  MET120     -0.2867
     41  CB        66.6730  106.2430   61.6870 C.3   120  MET120      0.0387
     42  CG        66.3720  106.6240   60.2340 C.3   120  MET120      0.0595
     43  SD        65.1760  105.5540   59.4240 S.3   120  MET120     -0.1393
     44  CE        63.6520  105.9980   60.3520 C.3   120  MET120      0.0692
     45  N         60.1860  111.1510   53.9970 N.3   155  TRP155     -0.1241
     46  CA        60.6020  110.3140   55.1200 C.3   155  TRP155      0.1605
     47  C         60.0750  110.8750   56.4390 C.2   155  TRP155      0.2264
     48  O         59.5420  110.1340   57.2650 O.2   155  TRP155     -0.2867
     49  CB        62.1300  110.2150   55.1690 C.3   155  TRP155      0.0550
     50  CG        62.6780  109.6850   56.4750 C.ar  155  TRP155      0.0003
     51  CD1       62.5190  108.4280   56.9860 C.ar  155  TRP155      0.0946
     52  CD2       63.4590  110.4130   57.4420 C.ar  155  TRP155      0.0152
     53  NE1       63.1500  108.3250   58.2110 N.ar  155  TRP155     -0.2442
     54  CE2       63.7330  109.5260   58.5130 C.ar  155  TRP155      0.0810
     55  CE3       63.9490  111.7250   57.5080 C.ar  155  TRP155      0.0012
     56  CZ2       64.4770  109.9110   59.6340 C.ar  155  TRP155      0.0191
     57  CZ3       64.6850  112.1070   58.6190 C.ar  155  TRP155      0.0001
     58  CH2       64.9440  111.2010   59.6700 C.ar  155  TRP155      0.0015
     59  N         56.2120  110.4490   56.8280 N.3   158  LEU158     -0.1231
     60  CA        55.8720  109.0560   57.0960 C.3   158  LEU158      0.1693
     61  C         56.1160  108.5870   58.5250 C.2   158  LEU158      0.2593
     62  O         55.2480  107.9580   59.1250 O.2   158  LEU158     -0.2718
     63  CB        56.6440  108.1390   56.1440 C.3   158  LEU158      0.0284
     64  CG        56.1940  108.0760   54.6810 C.3   158  LEU158      0.0019
     65  CD1       57.2700  107.4090   53.8330 C.3   158  LEU158      0.0001
     66  CD2       54.8930  107.3060   54.5760 C.3   158  LEU158      0.0001
     67  N         57.2860  108.8840   59.0800 N.am  159  GLY159     -0.1942
     68  CA        57.5740  108.4150   60.4260 C.3   159  GLY159      0.2014
     69  C         57.5400  109.4100   61.5710 C.2   159  GLY159      0.2638
     70  O         57.7360  109.0150   62.7190 O.2   159  GLY159     -0.2714
     71  N         57.2840  110.6850   61.2910 N.am  160  PHE160     -0.1973
     72  CA        57.2730  111.6720   62.3580 C.3   160  PHE160      0.1639
     73  C         56.1370  112.6840   62.3370 C.2   160  PHE160      0.2290
     74  O         55.3210  112.7170   63.2540 O.2   160  PHE160     -0.2864
     75  CB        58.6190  112.4030   62.3890 C.3   160  PHE160      0.0560
     76  CG        59.7860  111.4960   62.6640 C.ar  160  PHE160     -0.0200
     77  CD1       60.1360  111.1620   63.9700 C.ar  160  PHE160     -0.0042
     78  CD2       60.5020  110.9250   61.6140 C.ar  160  PHE160     -0.0042
     79  CE1       61.1850  110.2690   64.2240 C.ar  160  PHE160     -0.0003
     80  CE2       61.5500  110.0320   61.8590 C.ar  160  PHE160     -0.0003
     81  CZ        61.8900  109.7050   63.1640 C.ar  160  PHE160     -0.0000
     82  N         55.7160  103.7100   60.2550 N.3   173  VAL173     -0.1231
     83  CA        56.1260  102.5310   59.4970 C.3   173  VAL173      0.1678
     84  C         57.0900  101.6650   60.2870 C.2   173  VAL173      0.2434
     85  O         58.0320  102.1740   60.8930 O.2   173  VAL173     -0.2733
     86  CB        56.8240  102.9590   58.1680 C.3   173  VAL173      0.0265
     87  CG1       57.0250  101.7690   57.2650 C.3   173  VAL173      0.0020
     88  CG2       56.0090  104.0470   57.4680 C.3   173  VAL173      0.0020
     89  N         56.8830  100.3370   60.2750 N.am  174  PRO174     -0.2718
     90  CA        57.7490   99.3990   61.0050 C.3   174  PRO174      0.1535
     91  C         59.0060   99.0580   60.2070 C.2   174  PRO174      0.2599
     92  O         59.0350   99.2480   58.9900 O.2   174  PRO174     -0.2715
     93  CB        56.8500   98.1870   61.1810 C.3   174  PRO174      0.0310
     94  CG        56.1460   98.1550   59.8480 C.3   174  PRO174      0.0237
     95  CD        55.7730   99.6190   59.6230 C.3   174  PRO174      0.0939
     96  N         60.0360   98.5540   60.8840 N.am  175  TYR175     -0.1960
     97  CA        61.2810   98.1810   60.2070 C.3   175  TYR175      0.1771
     98  C         61.2800   96.6980   59.8490 C.2   175  TYR175      0.2620
     99  O         61.5010   95.8410   60.6950 O.2   175  TYR175     -0.2715
    100  CB        62.5040   98.4950   61.0870 C.3   175  TYR175      0.0574
    101  CG        62.6090   99.9510   61.4680 C.ar  175  TYR175     -0.0198
    102  CD1       62.9570  100.9150   60.5210 C.ar  175  TYR175     -0.0009
    103  CD2       62.2960  100.3820   62.7620 C.ar  175  TYR175     -0.0009
    104  CE1       62.9870  102.2810   60.8550 C.ar  175  TYR175      0.0417
    105  CE2       62.3170  101.7390   63.1040 C.ar  175  TYR175      0.0417
    106  CZ        62.6600  102.6780   62.1460 C.ar  175  TYR175      0.1957
    107  OH        62.6610  104.0140   62.4660 O.3   175  TYR175     -0.2866
    108  N         61.0170   96.4100   58.5810 N.am  176  GLY176     -0.1940
    109  CA        61.0010   95.0430   58.1010 C.3   176  GLY176      0.2014
    110  C         60.8680   95.0640   56.5860 C.2   176  GLY176      0.2638
    111  O         60.2520   95.9750   56.0370 O.2   176  GLY176     -0.2714
    112  N         61.4430   94.0770   55.9050 N.am  177  ILE177     -0.1977
    113  CA        61.3510   94.0190   54.4490 C.3   177  ILE177      0.1596
    114  C         59.9010   93.8340   53.9800 C.2   177  ILE177      0.2287
    115  O         59.3490   94.6830   53.2780 O.2   177  ILE177     -0.2864
    116  CB        62.2160   92.8830   53.8930 C.3   177  ILE177      0.0276
    117  CG1       63.6550   93.0700   54.3610 C.3   177  ILE177      0.0022
    118  CG2       62.1390   92.8660   52.3760 C.3   177  ILE177      0.0022
    119  CD1       64.2080   94.4630   54.0810 C.3   177  ILE177      0.0001
    120  N         57.0340   96.4170   55.9020 N.3   180  HIS180     -0.1241
    121  CA        56.7860   97.7720   55.4030 C.3   180  HIS180      0.1621
    122  C         56.0160   97.7640   54.0900 C.2   180  HIS180      0.2264
    123  O         55.4000   98.7580   53.7220 O.2   180  HIS180     -0.2867
    124  CB        58.0850   98.6270   55.3470 C.3   180  HIS180      0.0745
    125  CG        58.8130   98.6220   54.0330 C.ar  180  HIS180      0.0817
    126  ND1       59.4280   97.4930   53.5370 N.ar  180  HIS180     -0.2268
    127  CD2       59.0590   99.6660   53.2010 C.ar  180  HIS180      0.1154
    128  CE1       60.0350   97.8710   52.4290 C.ar  180  HIS180      0.1986
    129  NE2       59.8440   99.1800   52.1790 N.ar  180  HIS180     -0.2212
@<TRIPOS>BOND
     1   129   128   ar
     2   129   127   ar
     3   118   116    1
     4   128   126   ar
     5   127   125   ar
     6   115   114    2
     7   126   125   ar
     8   123   122    2
     9    65    64    1
    10   116   117    1
    11   116   113    1
    12   114   113    1
    13    45    46    1
    14   125   124    1
    15   119   117    1
    16   122   121    1
    17   113   112    1
    18    66    64    1
    19    64    63    1
    20    46    49    1
    21    46    47    1
    22    49    50    1
    23   124   121    1
    24   121   120    1
    25   112   110   am
    26   111   110    2
    27    63    60    1
    28    47    48    2
    29    50    51   ar
    30    50    52   ar
    31   110   109    1
    32    59    60    1
    33    51    53   ar
    34    60    61    1
    35    87    86    1
    36    52    55   ar
    37    52    54   ar
    38    88    86    1
    39    55    57   ar
    40    14    13   ar
    41    14    12   ar
    42   109   108    1
    43    86    83    1
    44    53    54   ar
    45    13    11   ar
    46    54    56   ar
    47    61    67   am
    48    61    62    2
    49   108    98   am
    50    57    58   ar
    51    92    91    2
    52    12    10   ar
    53    67    68    1
    54    43    42    1
    55    43    44    1
    56    83    82    1
    57    83    84    1
    58    95    94    1
    59    95    89    1
    60    11     8   ar
    61    56    58   ar
    62    94    93    1
    63    98    97    1
    64    98    99    2
    65    97    96    1
    66    97   100    1
    67    91    96   am
    68    91    90    1
    69    42    41    1
    70    89    84   am
    71    89    90    1
    72    84    85    2
    73    10     8   ar
    74    10     9   ar
    75    68    69    1
    76   102   104   ar
    77   102   101   ar
    78     8     6   ar
    79   104   106   ar
    80    90    93    1
    81   100   101    1
    82    40    39    2
    83    71    69   am
    84    71    72    1
    85    22    20    1
    86   101   103   ar
    87     9     7   ar
    88    69    70    2
    89    78    80   ar
    90    78    76   ar
    91    41    38    1
    92    80    81   ar
    93    21    19    1
    94     6     7   ar
    95     6     5    1
    96    39    38    1
    97   106   107    1
    98   106   105   ar
    99    38    37    1
   100    73    72    1
   101    73    74    2
   102    72    75    1
   103    75    76    1
   104    76    77   ar
   105   103   105   ar
   106    20    19    1
   107    19    16    1
   108     5     2    1
   109    81    79   ar
   110     3     4    2
   111     3     2    1
   112    31    32   ar
   113    31    29   ar
   114    77    79   ar
   115     2     1    1
   116    34    32   ar
   117    34    36   ar
   118    17    16    1
   119    17    18    2
   120    16    15    1
   121    32    30   ar
   122    29    28   ar
   123    36    35   ar
   124    30    28   ar
   125    30    33   ar
   126    28    27    1
   127    35    33   ar
   128    26    25    2
   129    27    24    1
   130    24    25    1
   131    24    23    1
