@<TRIPOS>MOLECULE
tmp/1dvjA00.pdb
 186 177 0 0 0
SMALL
GASTEIGER

@<TRIPOS>ATOM
      1  N         19.5150    4.9890   23.5360 N.3    10  ALA10      -0.1245
      2  CA        18.5990    3.8300   23.6430 C.3    10  ALA10       0.1562
      3  C         17.7910    3.8180   22.3360 C.2    10  ALA10       0.2260
      4  O         16.8470    4.5980   22.1540 O.2    10  ALA10      -0.2867
      5  CB        17.6530    3.9690   24.8340 C.3    10  ALA10       0.0290
      6  N         15.1540    2.4390   20.5740 N.3    12  ASP12      -0.1239
      7  CA        13.9180    1.6530   20.6890 C.3    12  ASP12       0.1674
      8  C         12.8860    1.8960   19.5860 C.2    12  ASP12       0.2266
      9  O         11.7040    1.5880   19.7450 O.2    12  ASP12      -0.2867
     10  CB        13.2760    1.8660   22.0720 C.3    12  ASP12       0.1410
     11  CG        14.1760    1.4200   23.2000 C.2    12  ASP12       0.3668
     12  OD1       14.7190    0.2970   23.1270 O.co2  12  ASP12      -0.2456
     13  OD2       14.3470    2.2000   24.1690 O.co2  12  ASP12      -0.2456
     14  N         22.3890    1.2290   22.8650 N.3    34  LYS34      -0.1245
     15  CA        21.6690    0.1740   23.6100 C.3    34  LYS34       0.1561
     16  C         20.5030   -0.2510   22.7170 C.2    34  LYS34       0.2260
     17  O         19.6620    0.5900   22.3280 O.2    34  LYS34      -0.2867
     18  CB        21.1400    0.7650   24.9280 C.3    34  LYS34       0.0271
     19  CG        20.4770   -0.2940   25.8140 C.3    34  LYS34       0.0035
     20  CD        20.0400    0.3270   27.1540 C.3    34  LYS34       0.0206
     21  CE        18.7360    1.0910   27.0980 C.3    34  LYS34       0.1093
     22  NZ        17.5610    0.2560   26.6780 N.3    34  LYS34      -0.1314
     23  N         19.8530   -4.7170   25.6570 N.3    62  ASP62      -0.1239
     24  CA        19.0190   -4.5330   26.8440 C.3    62  ASP62       0.1674
     25  C         17.8990   -5.5330   26.8430 C.2    62  ASP62       0.2266
     26  O         16.7520   -5.2110   26.5310 O.2    62  ASP62      -0.2867
     27  CB        18.4820   -3.1170   26.9050 C.3    62  ASP62       0.1410
     28  CG        17.8080   -2.8300   28.2180 C.2    62  ASP62       0.3668
     29  OD1       17.7440   -3.7450   29.0630 O.co2  62  ASP62      -0.2456
     30  OD2       17.3290   -1.7000   28.4060 O.co2  62  ASP62      -0.2456
     31  N         17.0690   -7.4590   29.6110 N.3    64  LYS64      -0.1245
     32  CA        16.4880   -7.6510   30.9500 C.3    64  LYS64       0.1561
     33  C         16.3880   -9.1410   31.2610 C.2    64  LYS64       0.2260
     34  O         15.3340   -9.6000   31.7000 O.2    64  LYS64      -0.2867
     35  CB        15.0720   -7.0560   30.9630 C.3    64  LYS64       0.0271
     36  CG        14.9620   -5.5570   30.5980 C.3    64  LYS64       0.0035
     37  CD        15.4670   -4.7490   31.7180 C.3    64  LYS64       0.0206
     38  CE        15.0480   -3.2610   31.6260 C.3    64  LYS64       0.1093
     39  NZ        15.5120   -2.5850   30.3550 N.3    64  LYS64      -0.1314
     40  N         22.2500   -6.7470   29.4010 N.3    88  ILE88      -0.1245
     41  CA        21.6760   -6.2960   30.6800 C.3    88  ILE88       0.1561
     42  C         20.8330   -7.4320   31.2360 C.2    88  ILE88       0.2260
     43  O         19.9510   -7.9800   30.5320 O.2    88  ILE88      -0.2867
     44  CB        20.8570   -4.9960   30.5070 C.3    88  ILE88       0.0252
     45  CG1       21.8250   -3.8730   30.1190 C.3    88  ILE88       0.0019
     46  CG2       20.1240   -4.6660   31.8380 C.3    88  ILE88       0.0019
     47  CD1       21.1450   -2.5650   29.6900 C.3    88  ILE88       0.0001
     48  N         21.1450   -4.9990   36.3710 N.3   115  LEU115     -0.1245
     49  CA        20.1120   -4.0200   36.6400 C.3   115  LEU115      0.1561
     50  C         19.7380   -4.1670   38.1250 C.2   115  LEU115      0.2260
     51  O         19.2070   -5.1970   38.5360 O.2   115  LEU115     -0.2867
     52  CB        18.9130   -4.2870   35.6720 C.3   115  LEU115      0.0270
     53  CG        17.7080   -3.3730   35.8320 C.3   115  LEU115      0.0019
     54  CD1       18.0550   -1.8990   35.7080 C.3   115  LEU115      0.0001
     55  CD2       16.6950   -3.7590   34.7420 C.3   115  LEU115      0.0001
     56  N         18.0570   -1.3720   40.2980 N.3   117  GLU117     -0.1231
     57  CA        16.8000   -0.7140   40.6310 C.3   117  GLU117      0.1699
     58  C         16.3810   -0.0630   39.3320 C.2   117  GLU117      0.2592
     59  O         17.2240    0.5300   38.6460 O.2   117  GLU117     -0.2718
     60  CB        16.9440    0.3980   41.7110 C.3   117  GLU117      0.0402
     61  CG        15.6170    1.0900   42.0070 C.3   117  GLU117      0.1161
     62  CD        15.6400    1.9560   43.2500 C.2   117  GLU117      0.3649
     63  OE1       14.8180    2.8820   43.3510 O.co2 117  GLU117     -0.2457
     64  OE2       16.4580    1.6720   44.1290 O.co2 117  GLU117     -0.2457
     65  N         15.1030   -0.1790   39.0170 N.am  118  MET118     -0.1965
     66  CA        14.5330    0.4060   37.7910 C.3   118  MET118      0.1736
     67  C         14.0590    1.8290   37.9870 C.2   118  MET118      0.2617
     68  O         13.8370    2.2800   39.1170 O.2   118  MET118     -0.2715
     69  CB        13.4010   -0.5050   37.2940 C.3   118  MET118      0.0427
     70  CG        14.0000   -1.8010   36.7500 C.3   118  MET118      0.0599
     71  SD        12.7290   -2.9160   36.1070 S.3   118  MET118     -0.1393
     72  CE        12.3100   -2.0950   34.5050 C.3   118  MET118      0.0692
     73  N         13.9050    2.5530   36.8760 N.am  119  SER119     -0.1936
     74  CA        13.5700    3.9590   36.9290 C.3   119  SER119      0.2055
     75  C         12.1020    4.3730   37.0140 C.2   119  SER119      0.2643
     76  O         11.8220    5.5260   37.3730 O.2   119  SER119     -0.2714
     77  CB        14.2000    4.6580   35.7270 C.3   119  SER119      0.2130
     78  OG        13.5280    4.2610   34.5520 O.3   119  SER119     -0.2179
     79  N         11.1950    3.4660   36.6760 N.am  120  HIS120     -0.1973
     80  CA         9.7660    3.7750   36.6110 C.3   120  HIS120      0.1656
     81  C          9.0750    3.7200   37.9610 C.2   120  HIS120      0.2291
     82  O          9.6140    3.1400   38.9250 O.2   120  HIS120     -0.2864
     83  CB         9.0970    2.8150   35.6040 C.3   120  HIS120      0.0771
     84  CG         9.1070    1.3990   36.0530 C.ar  120  HIS120      0.0820
     85  ND1       10.2720    0.6990   36.3010 N.ar  120  HIS120     -0.2267
     86  CD2        8.0910    0.5700   36.3650 C.ar  120  HIS120      0.1154
     87  CE1        9.9660   -0.5060   36.7500 C.ar  120  HIS120      0.1986
     88  NE2        8.6460   -0.6060   36.7960 N.ar  120  HIS120     -0.2212
     89  N         23.3490   -1.0020   36.2470 N.3   147  VAL147     -0.1231
     90  CA        22.3470   -0.0390   35.7850 C.3   147  VAL147      0.1692
     91  C         21.5310    0.4040   37.0160 C.2   147  VAL147      0.2593
     92  O         21.0680   -0.4270   37.8240 O.2   147  VAL147     -0.2718
     93  CB        21.4180   -0.6590   34.7310 C.3   147  VAL147      0.0266
     94  CG1       20.4950    0.4180   34.1680 C.3   147  VAL147      0.0020
     95  CG2       22.2480   -1.3080   33.6170 C.3   147  VAL147      0.0020
     96  N         21.3530    1.7140   37.1640 N.am  148  GLY148     -0.1943
     97  CA        20.5950    2.2790   38.2730 C.3   148  GLY148      0.1998
     98  C         19.8100    3.4640   37.7580 C.2   148  GLY148      0.2480
     99  O         20.2140    4.0630   36.7260 O.2   148  GLY148     -0.2729
    100  N         18.7820    3.9130   38.4960 N.am  149  PRO149     -0.2726
    101  CA        17.8790    4.9900   38.0860 C.3   149  PRO149      0.1402
    102  C         18.2190    6.4410   38.1820 C.2   149  PRO149      0.2269
    103  O         18.5330    6.9130   39.2700 O.2   149  PRO149     -0.2865
    104  CB        16.6290    4.6770   38.9120 C.3   149  PRO149      0.0296
    105  CG        17.2320    4.3150   40.2260 C.3   149  PRO149      0.0237
    106  CD        18.4060    3.4010   39.8310 C.3   149  PRO149      0.0939
    107  N         19.3640    5.1120   33.0830 N.3   172  PRO172     -0.2102
    108  CA        18.2930    5.5350   32.1750 C.3   172  PRO172      0.1504
    109  C         17.3170    6.4210   32.9570 C.2   172  PRO172      0.2576
    110  O         17.4040    6.5490   34.2020 O.2   172  PRO172     -0.2718
    111  CB        17.6420    4.2060   31.7700 C.3   172  PRO172      0.0282
    112  CG        17.7560    3.3230   33.0240 C.3   172  PRO172      0.0208
    113  CD        19.1110    3.7380   33.6230 C.3   172  PRO172      0.0893
    114  N         16.3780    7.0060   32.2180 N.am  173  GLY173     -0.1943
    115  CA        15.3550    7.8420   32.8290 C.3   173  GLY173      0.2014
    116  C         15.4990    9.3310   32.5820 C.2   173  GLY173      0.2638
    117  O         14.7040   10.1030   33.0820 O.2   173  GLY173     -0.2714
    118  N         16.4820    9.7270   31.7890 N.am  174  VAL174     -0.1977
    119  CA        16.7200   11.1430   31.4960 C.3   174  VAL174      0.1596
    120  C         15.8800   11.5010   30.2780 C.2   174  VAL174      0.2287
    121  O         15.8180   10.7510   29.2980 O.2   174  VAL174     -0.2864
    122  CB        18.2160   11.3840   31.1910 C.3   174  VAL174      0.0276
    123  CG1       18.4110   12.7520   30.6210 C.3   174  VAL174      0.0022
    124  CG2       19.0290   11.2650   32.4820 C.3   174  VAL174      0.0022
    125  N         12.4680   11.7430   28.7580 N.3   176  ALA176     -0.1231
    126  CA        11.0740   11.3830   28.8910 C.3   176  ALA176      0.1694
    127  C         10.6350   11.1410   30.3380 C.2   176  ALA176      0.2591
    128  O          9.5470   11.6050   30.7480 O.2   176  ALA176     -0.2718
    129  CB        10.7840   10.1450   28.0230 C.3   176  ALA176      0.0304
    130  N         11.4420   10.4390   31.1320 N.am  177  GLN177     -0.1979
    131  CA        11.0350   10.1820   32.5080 C.3   177  GLN177      0.1601
    132  C         11.4420   11.2590   33.5050 C.2   177  GLN177      0.2287
    133  O         11.1910   11.1290   34.7070 O.2   177  GLN177     -0.2864
    134  CB        11.5050    8.7970   32.9750 C.3   177  GLN177      0.0394
    135  CG        10.6660    7.6670   32.3960 C.3   177  GLN177      0.0908
    136  CD        10.5470    6.4770   33.3470 C.2   177  GLN177      0.2608
    137  OE1        9.5430    6.3110   34.0520 O.2   177  GLN177     -0.2717
    138  NE2       11.5880    5.6520   33.3790 N.am  177  GLN177     -0.0878
    139  N         21.7240    7.0770   29.8430 N.3   192  ILE192     -0.1231
    140  CA        21.0770    6.4680   28.6790 C.3   192  ILE192      0.1692
    141  C         19.9030    7.3900   28.3220 C.2   192  ILE192      0.2592
    142  O         19.1470    7.8410   29.2020 O.2   192  ILE192     -0.2718
    143  CB        20.4810    5.1080   29.0660 C.3   192  ILE192      0.0266
    144  CG1       21.5980    4.1340   29.3980 C.3   192  ILE192      0.0019
    145  CG2       19.5350    4.6110   27.9660 C.3   192  ILE192      0.0020
    146  CD1       21.0510    2.9200   30.1720 C.3   192  ILE192      0.0001
    147  N         19.7780    7.7170   27.0310 N.am  193  VAL193     -0.1966
    148  CA        18.6620    8.5380   26.5780 C.3   193  VAL193      0.1727
    149  C         18.0560    7.9180   25.3290 C.2   193  VAL193      0.2617
    150  O         18.7780    7.6130   24.3630 O.2   193  VAL193     -0.2715
    151  CB        19.1370    9.9760   26.2270 C.3   193  VAL193      0.0290
    152  CG1       17.9380   10.8400   25.7310 C.3   193  VAL193      0.0023
    153  CG2       19.7380   10.6410   27.4870 C.3   193  VAL193      0.0023
    154  N         16.7450    7.7620   25.3540 N.am  194  GLY194     -0.1940
    155  CA        16.0240    7.2050   24.2140 C.3   194  GLY194      0.2014
    156  C         15.0990    8.2140   23.5490 C.2   194  GLY194      0.2639
    157  O         15.5680    8.9540   22.6710 O.2   194  GLY194     -0.2714
    158  N         13.8570    8.3220   24.0150 N.am  195  ARG195     -0.1963
    159  CA        12.8470    9.1620   23.3560 C.3   195  ARG195      0.1729
    160  C         13.2240   10.6040   23.1440 C.2   195  ARG195      0.2616
    161  O         12.9060   11.1280   22.0680 O.2   195  ARG195     -0.2715
    162  CB        11.5360    9.1030   24.1060 C.3   195  ARG195      0.0348
    163  CG        10.8500    7.7450   23.9230 C.3   195  ARG195      0.0492
    164  CD         9.7100    7.5760   24.9600 C.3   195  ARG195      0.2205
    165  NE        10.2870    7.1720   26.2470 N.pl3 195  ARG195     -0.0865
    166  CZ         9.5990    7.0120   27.3790 C.cat 195  ARG195      0.5346
    167  NH1        8.2770    7.2260   27.4100 N.pl3 195  ARG195      0.1354
    168  NH2       10.2340    6.6100   28.4800 N.pl3 195  ARG195      0.1354
    169  N         13.8740   11.2360   24.1160 N.am  196  SER196     -0.1950
    170  CA        14.2680   12.6440   23.9390 C.3   196  SER196      0.1924
    171  C         15.1180   12.8450   22.6890 C.2   196  SER196      0.2314
    172  O         15.1430   13.9590   22.1180 O.2   196  SER196     -0.2863
    173  CB        15.0110   13.1280   25.1830 C.3   196  SER196      0.2116
    174  OG        14.0320   13.3340   26.1660 O.3   196  SER196     -0.2180
    175  N         15.3700   10.0170   19.9480 N.3   198  TYR198     -0.1241
    176  CA        14.7890    9.4190   18.7650 C.3   198  TYR198      0.1605
    177  C         13.4020    9.8780   18.3340 C.2   198  TYR198      0.2264
    178  O         12.9860    9.5930   17.1940 O.2   198  TYR198     -0.2867
    179  CB        14.9090    7.8590   18.7940 C.3   198  TYR198      0.0534
    180  CG        14.0380    7.0960   19.7680 C.ar  198  TYR198     -0.0201
    181  CD1       12.6700    6.9630   19.5500 C.ar  198  TYR198     -0.0009
    182  CD2       14.6030    6.4640   20.8830 C.ar  198  TYR198     -0.0009
    183  CE1       11.8570    6.2180   20.3980 C.ar  198  TYR198      0.0417
    184  CE2       13.8140    5.7040   21.7380 C.ar  198  TYR198      0.0417
    185  CZ        12.4360    5.5900   21.4990 C.ar  198  TYR198      0.1957
    186  OH        11.5950    4.9200   22.3570 O.3   198  TYR198     -0.2866
@<TRIPOS>BOND
     1   178   177    2
     2   177   176    1
     3   176   179    1
     4   176   175    1
     5   179   180    1
     6   181   180   ar
     7   181   183   ar
     8     8     9    2
     9     8     7    1
    10   180   182   ar
    11   183   185   ar
    12     6     7    1
    13     7    10    1
    14   182   184   ar
    15   185   184   ar
    16   185   186    1
    17   161   160    2
    18    10    11    1
    19   172   171    2
    20     4     3    2
    21    17    16    2
    22     3     2    1
    23   157   156    2
    24   171   170    1
    25    16    15    1
    26    14    15    1
    27    12    11   ar
    28   160   159    1
    29   160   169   am
    30    11    13   ar
    31   159   158    1
    32   159   162    1
    33     1     2    1
    34   156   158   am
    35   156   155    1
    36    15    18    1
    37     2     5    1
    38   163   162    1
    39   163   164    1
    40   170   169    1
    41   170   173    1
    42   155   154    1
    43   150   149    2
    44    18    19    1
    45   164   165    1
    46   173   174    1
    47   149   154   am
    48   149   148    1
    49    23    24    1
    50   152   151    1
    51    19    20    1
    52   151   148    1
    53   151   153    1
    54   165   166    2
    55    26    25    2
    56   148   147    1
    57    22    21    1
    58    25    24    1
    59    24    27    1
    60    27    28    1
    61   147   141   am
    62    21    20    1
    63   166   167    1
    64   166   168    1
    65   145   143    1
    66   129   126    1
    67    28    30   ar
    68    28    29   ar
    69   141   140    1
    70   141   142    2
    71   140   143    1
    72   140   139    1
    73   125   126    1
    74   126   127    1
    75   143   144    1
    76   121   120    2
    77   144   146    1
    78    40    41    1
    79    31    32    1
    80    47    45    1
    81    45    44    1
    82   120   119    1
    83   127   128    2
    84   127   130   am
    85    39    38    1
    86    44    41    1
    87    44    46    1
    88    43    42    2
    89    36    35    1
    90    36    37    1
    91   123   122    1
    92    41    42    1
    93    32    35    1
    94    32    33    1
    95   130   131    1
    96   122   119    1
    97   122   124    1
    98    33    34    2
    99   119   118    1
   100    38    37    1
   101   111   108    1
   102   111   112    1
   103   118   116   am
   104   108   109    1
   105   108   107    1
   106   114   115    1
   107   114   109   am
   108   135   134    1
   109   135   136    1
   110   131   134    1
   111   131   132    1
   112   116   115    1
   113   116   117    2
   114   109   110    2
   115   112   113    1
   116   107   113    1
   117   136   138   am
   118   136   137    2
   119   132   133    2
   120    95    93    1
   121    94    93    1
   122    72    71    1
   123    78    77    1
   124    93    90    1
   125    55    53    1
   126    83    84    1
   127    83    80    1
   128    52    53    1
   129    52    49    1
   130    54    53    1
   131    77    74    1
   132    90    89    1
   133    90    91    1
   134    84    85   ar
   135    84    86   ar
   136    71    70    1
   137    85    87   ar
   138    86    88   ar
   139    48    49    1
   140    80    79    1
   141    80    81    1
   142    49    50    1
   143    79    75   am
   144    99    98    2
   145    70    69    1
   146    87    88   ar
   147    73    74    1
   148    73    67   am
   149    74    75    1
   150    75    76    2
   151    91    96   am
   152    91    92    2
   153    96    97    1
   154    69    66    1
   155    98    97    1
   156    98   100   am
   157    66    67    1
   158    66    65    1
   159    81    82    2
   160    67    68    2
   161   101   102    1
   162   101   100    1
   163   101   104    1
   164    50    51    2
   165   102   103    2
   166   100   106    1
   167    59    58    2
   168   104   105    1
   169    65    58   am
   170    58    57    1
   171   106   105    1
   172    56    57    1
   173    57    60    1
   174    60    61    1
   175    61    62    1
   176    62    63   ar
   177    62    64   ar
