@<TRIPOS>MOLECULE
tmp/1dvrB00.pdb
 178 176 0 0 0
SMALL
GASTEIGER

@<TRIPOS>ATOM
      1  N         20.5720   36.5220   18.1350 N.3    13  PRO13      -0.2102
      2  CA        21.9730   36.1360   17.9880 C.3    13  PRO13       0.1504
      3  C         22.5950   35.9390   19.3760 C.2    13  PRO13       0.2576
      4  O         22.5120   36.8110   20.2410 O.2    13  PRO13      -0.2718
      5  CB        22.5700   37.3240   17.2300 C.3    13  PRO13       0.0282
      6  CG        21.6670   38.4750   17.5900 C.3    13  PRO13       0.0208
      7  CD        20.3180   37.8400   17.5260 C.3    13  PRO13       0.0893
      8  N         23.1390   34.7600   19.6050 N.am   14  GLY14      -0.1943
      9  CA        23.7520   34.4660   20.8810 C.3    14  GLY14       0.2014
     10  C         22.9680   33.4730   21.7140 C.2    14  GLY14       0.2639
     11  O         23.4610   32.9880   22.7280 O.2    14  GLY14      -0.2714
     12  N         21.7680   33.1280   21.2680 N.am   15  ALA15      -0.1963
     13  CA        20.9100   32.1920   21.9840 C.3    15  ALA15       0.1728
     14  C         21.2730   30.7100   21.8140 C.2    15  ALA15       0.2617
     15  O         20.8090   29.8550   22.5760 O.2    15  ALA15      -0.2715
     16  CB        19.4630   32.4380   21.6020 C.3    15  ALA15       0.0334
     17  N         22.0410   30.3940   20.7790 N.am   16  GLY16      -0.1940
     18  CA        22.4370   29.0200   20.5640 C.3    16  GLY16       0.2014
     19  C         21.7200   28.2330   19.4860 C.2    16  GLY16       0.2639
     20  O         21.7390   26.9940   19.5340 O.2    16  GLY16      -0.2714
     21  N         21.1410   28.8970   18.4860 N.am   17  LYS17      -0.1963
     22  CA        20.4370   28.1580   17.4200 C.3    17  LYS17       0.1728
     23  C         21.4010   27.2420   16.6860 C.2    17  LYS17       0.2617
     24  O         21.0520   26.1250   16.3000 O.2    17  LYS17      -0.2715
     25  CB        19.8160   29.1010   16.4020 C.3    17  LYS17       0.0311
     26  CG        18.8370   30.0890   16.9570 C.3    17  LYS17       0.0038
     27  CD        18.3360   30.9580   15.8230 C.3    17  LYS17       0.0206
     28  CE        19.4020   31.8970   15.3070 C.3    17  LYS17       0.1093
     29  NZ        19.8240   32.8810   16.3540 N.3    17  LYS17      -0.1314
     30  N         22.6240   27.7340   16.5230 N.am   18  GLY18      -0.1940
     31  CA        23.6610   26.9890   15.8470 C.3    18  GLY18       0.2014
     32  C         24.1280   25.8450   16.7030 C.2    18  GLY18       0.2640
     33  O         24.7530   24.9080   16.2270 O.2    18  GLY18      -0.2714
     34  N         23.8150   25.8970   17.9800 N.am   19  THR19      -0.1936
     35  CA        24.2290   24.8210   18.8440 C.3    19  THR19       0.2028
     36  C         23.1490   23.7710   18.9830 C.2    19  THR19       0.2642
     37  O         23.4550   22.5840   19.1050 O.2    19  THR19      -0.2714
     38  CB        24.6850   25.3610   20.1990 C.3    19  THR19       0.1808
     39  OG1       25.8770   26.1420   20.0070 O.3    19  THR19      -0.2208
     40  CG2       24.9780   24.2290   21.1580 C.3    19  THR19       0.0379
     41  N         21.8840   24.1810   18.8930 N.am   20  GLN20      -0.1976
     42  CA        20.7920   23.2160   19.0330 C.3    20  GLN20       0.1601
     43  C         20.3540   22.5410   17.7440 C.2    20  GLN20       0.2287
     44  O         20.1250   21.3300   17.7350 O.2    20  GLN20      -0.2864
     45  CB        19.5780   23.8330   19.7350 C.3    20  GLN20       0.0394
     46  CG        19.7900   24.2470   21.1880 C.3    20  GLN20       0.0908
     47  CD        20.3900   23.1420   22.0470 C.2    20  GLN20       0.2608
     48  OE1       21.1760   23.4200   22.9550 O.2    20  GLN20      -0.2717
     49  NE2       20.0330   21.8880   21.7620 N.am   20  GLN20      -0.0878
     50  N         27.8690   37.1090   26.4850 N.3   128  ARG128     -0.1231
     51  CA        28.2730   35.8080   25.9640 C.3   128  ARG128      0.1694
     52  C         28.7920   35.8110   24.5330 C.2   128  ARG128      0.2591
     53  O         29.5520   34.9260   24.1630 O.2   128  ARG128     -0.2718
     54  CB        27.1700   34.7400   26.1830 C.3   128  ARG128      0.0321
     55  CG        26.2620   34.3860   24.9960 C.3   128  ARG128      0.0489
     56  CD        25.8010   32.9110   25.0460 C.3   128  ARG128      0.2205
     57  NE        24.8990   32.6110   26.1590 N.pl3 128  ARG128     -0.0865
     58  CZ        23.8100   31.8380   26.0710 C.cat 128  ARG128      0.5346
     59  NH1       23.4600   31.2730   24.9200 N.pl3 128  ARG128      0.1354
     60  NH2       23.0530   31.6290   27.1400 N.pl3 128  ARG128      0.1354
     61  N         28.4470   36.8320   23.7470 N.am  129  ILE129     -0.1980
     62  CA        28.8900   36.9160   22.3430 C.3   129  ILE129      0.1595
     63  C         30.3780   37.2380   22.2080 C.2   129  ILE129      0.2287
     64  O         31.0040   36.9630   21.1940 O.2   129  ILE129     -0.2864
     65  CB        28.0800   37.9580   21.5590 C.3   129  ILE129      0.0276
     66  CG1       27.8940   37.4700   20.1310 C.3   129  ILE129      0.0022
     67  CG2       28.7710   39.3300   21.5800 C.3   129  ILE129      0.0022
     68  CD1       27.1870   36.1280   20.0540 C.3   129  ILE129      0.0001
     69  N         32.8090   33.7300   21.5220 N.3   132  ARG132     -0.1245
     70  CA        32.4200   32.6540   20.6080 C.3   132  ARG132      0.1563
     71  C         33.5510   32.3550   19.6010 C.2   132  ARG132      0.2260
     72  O         34.2350   33.2770   19.1340 O.2   132  ARG132     -0.2867
     73  CB        31.1440   33.0350   19.8290 C.3   132  ARG132      0.0307
     74  CG        31.0260   32.2740   18.5020 C.3   132  ARG132      0.0489
     75  CD        29.7250   32.4160   17.7830 C.3   132  ARG132      0.2205
     76  NE        29.4310   33.7760   17.3450 N.pl3 132  ARG132     -0.0865
     77  CZ        28.2500   34.1220   16.8490 C.cat 132  ARG132      0.5346
     78  NH1       27.3070   33.2020   16.7210 N.pl3 132  ARG132      0.1354
     79  NH2       28.0050   35.3690   16.4710 N.pl3 132  ARG132      0.1354
     80  N         30.3790   26.1390   15.9790 N.3   141  SER141     -0.1202
     81  CA        30.7170   27.1740   16.9160 C.3   141  SER141      0.2020
     82  C         30.9500   26.5680   18.2750 C.2   141  SER141      0.2619
     83  O         30.3480   25.5490   18.6270 O.2   141  SER141     -0.2717
     84  CB        29.5600   28.1400   17.0290 C.3   141  SER141      0.2103
     85  OG        28.4400   27.4160   17.4940 O.3   141  SER141     -0.2182
     86  N         31.8230   27.2250   19.0280 N.am  142  TYR142     -0.1961
     87  CA        32.1750   26.8350   20.3740 C.3   142  TYR142      0.1771
     88  C         32.1460   28.1180   21.1870 C.2   142  TYR142      0.2619
     89  O         32.0100   29.2150   20.6300 O.2   142  TYR142     -0.2715
     90  CB        33.6050   26.3050   20.4030 C.3   142  TYR142      0.0574
     91  CG        33.8620   25.1000   19.5390 C.ar  142  TYR142     -0.0198
     92  CD1       34.0680   25.2270   18.1590 C.ar  142  TYR142     -0.0009
     93  CD2       33.9290   23.8250   20.1030 C.ar  142  TYR142     -0.0009
     94  CE1       34.3350   24.1030   17.3710 C.ar  142  TYR142      0.0417
     95  CE2       34.1990   22.6950   19.3180 C.ar  142  TYR142      0.0417
     96  CZ        34.3970   22.8560   17.9620 C.ar  142  TYR142      0.1957
     97  OH        34.6480   21.7540   17.2170 O.3   142  TYR142     -0.2866
     98  N         32.2170   27.9900   22.5030 N.am  143  HIS143     -0.1973
     99  CA        32.2960   29.1660   23.3530 C.3   143  HIS143      0.1656
    100  C         33.4400   28.9110   24.2920 C.2   143  HIS143      0.2291
    101  O         33.4990   27.8550   24.9060 O.2   143  HIS143     -0.2864
    102  CB        31.0390   29.4170   24.1500 C.3   143  HIS143      0.0771
    103  CG        31.0140   30.7740   24.7560 C.ar  143  HIS143      0.0820
    104  ND1       31.8400   31.1230   25.7970 N.ar  143  HIS143     -0.2267
    105  CD2       30.3560   31.9010   24.4030 C.ar  143  HIS143      0.1154
    106  CE1       31.7050   32.4130   26.0560 C.ar  143  HIS143      0.1986
    107  NE2       30.8100   32.9080   25.2210 N.ar  143  HIS143     -0.2212
    108  N         31.5640   28.5920   28.1480 N.3   146  PHE146     -0.1227
    109  CA        30.3960   27.7130   28.2130 C.3   146  PHE146      0.1736
    110  C         30.3280   26.4010   27.4390 C.2   146  PHE146      0.2595
    111  O         29.5130   25.5340   27.7520 O.2   146  PHE146     -0.2718
    112  CB        29.1330   28.5390   27.9120 C.3   146  PHE146      0.0547
    113  CG        29.0270   29.8310   28.7070 C.ar  146  PHE146     -0.0202
    114  CD1       28.8230   29.8100   30.0860 C.ar  146  PHE146     -0.0042
    115  CD2       29.1640   31.0690   28.0760 C.ar  146  PHE146     -0.0042
    116  CE1       28.7630   31.0050   30.8240 C.ar  146  PHE146     -0.0003
    117  CE2       29.1060   32.2770   28.8080 C.ar  146  PHE146     -0.0003
    118  CZ        28.9070   32.2420   30.1800 C.ar  146  PHE146     -0.0000
    119  N         31.1450   26.2660   26.4050 N.am  147  ASN147     -0.1974
    120  CA        31.1440   25.0770   25.5500 C.3   147  ASN147      0.1688
    121  C         32.4830   25.2210   24.8710 C.2   147  ASN147      0.2292
    122  O         32.5560   25.5280   23.6880 O.2   147  ASN147     -0.2864
    123  CB        30.0170   25.2130   24.5190 C.3   147  ASN147      0.1181
    124  CG        29.7140   23.9130   23.7920 C.2   147  ASN147      0.2629
    125  OD1       29.2450   23.9250   22.6530 O.2   147  ASN147     -0.2716
    126  ND2       29.9440   22.7890   24.4530 N.am  147  ASN147     -0.0877
    127  N         21.8700   44.7380   16.7880 N.3   176  ARG176     -0.1245
    128  CA        21.2200   43.5750   16.2330 C.3   176  ARG176      0.1563
    129  C         20.1420   42.9630   17.1300 C.2   176  ARG176      0.2260
    130  O         19.1640   42.4320   16.6120 O.2   176  ARG176     -0.2867
    131  CB        22.2670   42.5530   15.7960 C.3   176  ARG176      0.0307
    132  CG        23.2490   43.1330   14.7610 C.3   176  ARG176      0.0489
    133  CD        24.1320   42.0600   14.1230 C.3   176  ARG176      0.2205
    134  NE        23.3690   41.1450   13.2670 N.pl3 176  ARG176     -0.0865
    135  CZ        23.7390   39.9010   12.9630 C.cat 176  ARG176      0.5346
    136  NH1       24.8680   39.3970   13.4500 N.pl3 176  ARG176      0.1354
    137  NH2       22.9730   39.1560   12.1740 N.pl3 176  ARG176      0.1354
    138  N         16.9310   29.6380   27.1700 N.3   202  ALA202     -0.1231
    139  CA        18.2500   29.5440   26.5340 C.3   202  ALA202      0.1694
    140  C         19.4000   30.0020   27.4420 C.2   202  ALA202      0.2593
    141  O         20.5690   29.9510   27.0460 O.2   202  ALA202     -0.2718
    142  CB        18.2750   30.3320   25.2360 C.3   202  ALA202      0.0304
    143  N         19.0680   30.4810   28.6390 N.am  203  SER203     -0.1938
    144  CA        20.0720   30.9320   29.6120 C.3   203  SER203      0.2055
    145  C         20.7730   29.7330   30.2970 C.2   203  SER203      0.2643
    146  O         21.7930   29.9140   30.9510 O.2   203  SER203     -0.2714
    147  CB        19.4460   31.8300   30.7060 C.3   203  SER203      0.2130
    148  OG        18.6970   32.9200   30.1880 O.3   203  SER203     -0.2179
    149  N         20.1990   28.5340   30.1820 N.am  204  GLN204     -0.1963
    150  CA        20.7550   27.3240   30.7970 C.3   204  GLN204      0.1718
    151  C         21.9000   26.7420   29.9630 C.2   204  GLN204      0.2458
    152  O         22.0420   27.0720   28.7930 O.2   204  GLN204     -0.2730
    153  CB        19.6550   26.2520   30.9350 C.3   204  GLN204      0.0407
    154  CG        18.4160   26.6510   31.7370 C.3   204  GLN204      0.0908
    155  CD        18.6650   26.7390   33.2340 C.2   204  GLN204      0.2608
    156  OE1       19.8090   26.7460   33.6920 O.2   204  GLN204     -0.2717
    157  NE2       17.5920   26.8010   34.0040 N.am  204  GLN204     -0.0878
    158  N         22.7560   25.8960   30.5690 N.am  205  PRO205     -0.2716
    159  CA        23.8550   25.3080   29.7930 C.3   205  PRO205      0.1521
    160  C         23.2750   24.5020   28.6230 C.2   205  PRO205      0.2440
    161  O         22.1450   24.0260   28.7110 O.2   205  PRO205     -0.2731
    162  CB        24.5760   24.4180   30.8300 C.3   205  PRO205      0.0310
    163  CG        23.5740   24.2220   31.9250 C.3   205  PRO205      0.0237
    164  CD        22.8900   25.5560   31.9950 C.3   205  PRO205      0.0939
    165  N         24.0480   24.3140   27.5300 N.am  206  PRO206     -0.2727
    166  CA        23.6480   23.5780   26.3230 C.3   206  PRO206      0.1402
    167  C         22.8420   22.3000   26.5030 C.2   206  PRO206      0.2269
    168  O         21.7780   22.1250   25.8970 O.2   206  PRO206     -0.2865
    169  CB        24.9940   23.2870   25.6350 C.3   206  PRO206      0.0296
    170  CG        25.7530   24.5060   25.9120 C.3   206  PRO206      0.0237
    171  CD        25.4450   24.7780   27.3950 C.3   206  PRO206      0.0939
    172  N         19.4160   22.9630   27.8550 N.3   209  VAL209     -0.1245
    173  CA        18.5560   23.5880   26.8390 C.3   209  VAL209      0.1561
    174  C         18.1520   22.4990   25.8100 C.2   209  VAL209      0.2260
    175  O         17.0340   22.4770   25.3160 O.2   209  VAL209     -0.2867
    176  CB        19.2990   24.7570   26.1230 C.3   209  VAL209      0.0252
    177  CG1       18.4010   25.4210   25.0970 C.3   209  VAL209      0.0019
    178  CG2       19.7610   25.7740   27.1320 C.3   209  VAL209      0.0019
@<TRIPOS>BOND
     1   137   135    1
     2   135   134    2
     3   135   136    1
     4   134   133    1
     5   133   132    1
     6   132   131    1
     7    28    27    1
     8    28    29    1
     9   131   128    1
    10    27    26    1
    11    31    30    1
    12    31    32    1
    13    80    81    1
    14    33    32    2
    15   128   127    1
    16   128   129    1
    17    24    23    2
    18    25    26    1
    19    25    22    1
    20    79    77    1
    21    30    23   am
    22   130   129    2
    23    23    22    1
    24    32    34   am
    25    78    77    1
    26    77    76    2
    27    81    84    1
    28    81    82    1
    29    84    85    1
    30    97    96    1
    31     5     6    1
    32     5     2    1
    33    76    75    1
    34    94    96   ar
    35    94    92   ar
    36    22    21    1
    37     7     6    1
    38     7     1    1
    39    44    43    2
    40    43    42    1
    41    75    74    1
    42    96    95   ar
    43    34    35    1
    44     2     1    1
    45     2     3    1
    46    92    91   ar
    47    82    83    2
    48    82    86   am
    49    21    19   am
    50    74    73    1
    51    35    36    1
    52    35    38    1
    53    41    36   am
    54    41    42    1
    55    36    37    2
    56    86    87    1
    57    42    45    1
    58    72    71    2
    59    95    93   ar
    60     3     8   am
    61     3     4    2
    62    19    20    2
    63    19    18    1
    64    91    93   ar
    65    91    90    1
    66    71    70    1
    67     8     9    1
    68    45    46    1
    69    73    70    1
    70    39    38    1
    71    68    66    1
    72    66    65    1
    73    38    40    1
    74    87    90    1
    75    87    88    1
    76    18    17    1
    77    70    69    1
    78    89    88    2
    79    17    14   am
    80     9    10    1
    81    88    98   am
    82    46    47    1
    83    64    63    2
    84    12    10   am
    85    12    13    1
    86    65    67    1
    87    65    62    1
    88    16    13    1
    89    10    11    2
    90    49    47   am
    91    14    13    1
    92    14    15    2
    93    47    48    2
    94    63    62    1
    95    62    61    1
    96    98    99    1
    97   125   124    2
    98    99   102    1
    99    99   100    1
   100   122   121    2
   101    61    52   am
   102   124   126   am
   103   124   123    1
   104   102   103    1
   105    53    52    2
   106   100   101    2
   107   105   103   ar
   108   105   107   ar
   109   123   120    1
   110    52    51    1
   111   103   104   ar
   112   121   120    1
   113    59    58    1
   114    55    56    1
   115    55    54    1
   116    56    57    1
   117   177   176    1
   118   107   106   ar
   119   142   139    1
   120   175   174    2
   121   120   119    1
   122   169   170    1
   123   169   166    1
   124   104   106   ar
   125   174   173    1
   126   168   167    2
   127   170   171    1
   128    51    54    1
   129    51    50    1
   130    58    57    2
   131    58    60    1
   132   176   173    1
   133   176   178    1
   134   166   167    1
   135   166   165    1
   136   119   110   am
   137   139   138    1
   138   139   140    1
   139   173   172    1
   140   141   140    2
   141   171   165    1
   142   110   111    2
   143   110   109    1
   144   140   143   am
   145   165   160   am
   146   112   109    1
   147   112   113    1
   148   115   113   ar
   149   115   117   ar
   150   108   109    1
   151   160   161    2
   152   160   159    1
   153   143   144    1
   154   113   114   ar
   155   152   151    2
   156   117   118   ar
   157   144   145    1
   158   144   147    1
   159   159   158    1
   160   159   162    1
   161   151   158   am
   162   151   150    1
   163   114   116   ar
   164   118   116   ar
   165   149   145   am
   166   149   150    1
   167   148   147    1
   168   145   146    2
   169   158   164    1
   170   150   153    1
   171   162   163    1
   172   153   154    1
   173   154   155    1
   174   163   164    1
   175   155   156    2
   176   155   157   am
