@<TRIPOS>MOLECULE
tmp/1dvtA00.pdb
 77 70 0 0 0
SMALL
GASTEIGER

@<TRIPOS>ATOM
      1  N         17.9210   31.9260   -0.3090 N.3     4  MET4       -0.1245
      2  CA        19.1790   32.6380   -0.4710 C.3     4  MET4        0.1570
      3  C         19.7450   32.9130    0.9250 C.2     4  MET4        0.2261
      4  O         18.9900   33.1730    1.8570 O.2     4  MET4       -0.2867
      5  CB        18.9140   33.9450   -1.2260 C.3     4  MET4        0.0387
      6  CG        20.0750   34.4660   -2.0570 C.3     4  MET4        0.0595
      7  SD        21.2600   35.4470   -1.1260 S.3     4  MET4       -0.1393
      8  CE        20.5950   37.1130   -1.3910 C.3     4  MET4        0.0692
      9  N         22.8040   35.1210    3.0410 N.3     6  LYS6       -0.1245
     10  CA        23.8030   36.1710    2.9430 C.3     6  LYS6        0.1561
     11  C         24.4600   36.3240    4.2990 C.2     6  LYS6        0.2260
     12  O         23.7840   36.4270    5.3190 O.2     6  LYS6       -0.2867
     13  CB        23.1640   37.4820    2.5000 C.3     6  LYS6        0.0271
     14  CG        24.1860   38.4930    2.0040 C.3     6  LYS6        0.0035
     15  CD        23.5400   39.5440    1.1270 C.3     6  LYS6        0.0206
     16  CE        24.5860   40.3900    0.4130 C.3     6  LYS6        0.1093
     17  NZ        25.5550   40.9850    1.3670 N.3     6  LYS6       -0.1314
     18  N         27.4060   38.4280    6.5750 N.3     8  LEU8       -0.1245
     19  CA        28.2880   39.5760    6.6870 C.3     8  LEU8        0.1561
     20  C         29.1700   39.4700    7.9190 C.2     8  LEU8        0.2260
     21  O         28.7990   38.8570    8.9250 O.2     8  LEU8       -0.2867
     22  CB        27.4820   40.8750    6.7700 C.3     8  LEU8        0.0270
     23  CG        26.5630   41.2700    5.6140 C.3     8  LEU8        0.0019
     24  CD1       25.9550   42.6210    5.9520 C.3     8  LEU8        0.0001
     25  CD2       27.3410   41.3680    4.3050 C.3     8  LEU8        0.0001
     26  N         15.1420   34.8910    2.1050 N.3    97  THR97      -0.1218
     27  CA        16.4990   35.3910    2.1660 C.3    97  THR97       0.1862
     28  C         16.8460   35.3220    3.6430 C.2    97  THR97       0.2287
     29  O         16.1740   35.9350    4.4790 O.2    97  THR97      -0.2866
     30  CB        16.6290   36.8450    1.6850 C.3    97  THR97       0.1770
     31  OG1       16.3460   36.9110    0.2850 O.3    97  THR97      -0.2211
     32  CG2       18.0510   37.3460    1.9180 C.3    97  THR97       0.0375
     33  N         19.6200   36.1910    6.2820 N.3    99  ALA99      -0.1231
     34  CA        20.8150   37.0060    6.4470 C.3    99  ALA99       0.1694
     35  C         21.3810   36.8230    7.8390 C.2    99  ALA99       0.2592
     36  O         20.6330   36.7170    8.8090 O.2    99  ALA99      -0.2718
     37  CB        20.4830   38.4650    6.2140 C.3    99  ALA99       0.0304
     38  N         22.7060   36.7790    7.9310 N.am  100  ALA100     -0.1966
     39  CA        23.3720   36.6260    9.2140 C.3   100  ALA100      0.1728
     40  C         24.4920   37.6560    9.3110 C.2   100  ALA100      0.2616
     41  O         25.2050   37.8980    8.3410 O.2   100  ALA100     -0.2715
     42  CB        23.9400   35.2150    9.3360 C.3   100  ALA100      0.0334
     43  N         24.6240   38.2800   10.4750 N.am  101  LEU101     -0.1977
     44  CA        25.6760   39.2580   10.7160 C.3   101  LEU101      0.1596
     45  C         26.5080   38.6240   11.8210 C.2   101  LEU101      0.2287
     46  O         26.0070   38.3700   12.9200 O.2   101  LEU101     -0.2864
     47  CB        25.0780   40.5900   11.1730 C.3   101  LEU101      0.0297
     48  CG        26.1090   41.6740   11.5030 C.3   101  LEU101      0.0022
     49  CD1       26.9750   41.9530   10.2860 C.3   101  LEU101      0.0001
     50  CD2       25.4010   42.9300   11.9420 C.3   101  LEU101      0.0001
     51  N         23.4880   37.8380   14.5160 N.3   108  SER108     -0.1202
     52  CA        22.1080   38.2240   14.3850 C.3   108  SER108      0.2020
     53  C         21.6960   37.6390   13.0680 C.2   108  SER108      0.2619
     54  O         22.5030   37.5420   12.1420 O.2   108  SER108     -0.2717
     55  CB        21.9780   39.7450   14.3270 C.3   108  SER108      0.2103
     56  OG        22.5810   40.3560   15.4550 O.3   108  SER108     -0.2182
     57  N         20.4510   37.2100   12.9860 N.am  109  THR109     -0.1938
     58  CA        19.9670   36.6670   11.7460 C.3   109  THR109      0.2028
     59  C         18.5890   37.2350   11.5470 C.2   109  THR109      0.2642
     60  O         17.8470   37.4460   12.5080 O.2   109  THR109     -0.2714
     61  CB        19.8930   35.1300   11.7770 C.3   109  THR109      0.1808
     62  OG1       19.4420   34.6610   10.5050 O.3   109  THR109     -0.2208
     63  CG2       18.9330   34.6440   12.8540 C.3   109  THR109      0.0379
     64  N         18.2650   37.5350   10.3020 N.am  110  THR110     -0.1950
     65  CA        16.9510   38.0380   10.0010 C.3   110  THR110      0.1897
     66  C         16.5160   37.3320    8.7310 C.2   110  THR110      0.2313
     67  O         17.3360   36.7480    8.0190 O.2   110  THR110     -0.2863
     68  CB        16.9430   39.5720    9.8080 C.3   110  THR110      0.1794
     69  OG1       15.5880   40.0290    9.7480 O.3   110  THR110     -0.2208
     70  CG2       17.6630   39.9760    8.5290 C.3   110  THR110      0.0378
     71  N         13.9330   37.6800    5.2210 N.3   112  VAL112     -0.1245
     72  CA        13.1220   38.5440    4.3770 C.3   112  VAL112      0.1561
     73  C         12.3620   37.5470    3.5290 C.2   112  VAL112      0.2260
     74  O         12.9570   36.7640    2.7890 O.2   112  VAL112     -0.2867
     75  CB        13.9650   39.4420    3.4690 C.3   112  VAL112      0.0252
     76  CG1       13.0610   40.1650    2.4660 C.3   112  VAL112      0.0019
     77  CG2       14.7220   40.4500    4.3130 C.3   112  VAL112      0.0019
@<TRIPOS>BOND
     1     6     5    1
     2     6     7    1
     3     8     7    1
     4     5     2    1
     5     2     1    1
     6     2     3    1
     7    31    30    1
     8    16    15    1
     9    16    17    1
    10     3     4    2
    11    15    14    1
    12    30    32    1
    13    30    27    1
    14    14    13    1
    15    26    27    1
    16    27    28    1
    17    76    75    1
    18    13    10    1
    19    74    73    2
    20    10     9    1
    21    10    11    1
    22    75    77    1
    23    75    72    1
    24    73    72    1
    25    28    29    2
    26    11    12    2
    27    25    23    1
    28    72    71    1
    29    23    24    1
    30    23    22    1
    31    37    34    1
    32    33    34    1
    33    34    35    1
    34    18    19    1
    35    19    22    1
    36    19    20    1
    37    35    38   am
    38    35    36    2
    39    20    21    2
    40    38    39    1
    41    67    66    2
    42    41    40    2
    43    70    68    1
    44    66    65    1
    45    39    40    1
    46    39    42    1
    47    40    43   am
    48    69    68    1
    49    68    65    1
    50    65    64    1
    51    49    48    1
    52    64    59   am
    53    43    44    1
    54    62    61    1
    55    44    47    1
    56    44    45    1
    57    47    48    1
    58    48    50    1
    59    59    58    1
    60    59    60    2
    61    58    61    1
    62    58    57    1
    63    61    63    1
    64    45    46    2
    65    54    53    2
    66    57    53   am
    67    53    52    1
    68    55    52    1
    69    55    56    1
    70    52    51    1
