@<TRIPOS>MOLECULE
tmp/1dvxA00.pdb
 69 63 0 0 0
SMALL
GASTEIGER

@<TRIPOS>ATOM
      1  N         22.6220   35.1650    2.9090 N.3     6  LYS6       -0.1245
      2  CA        23.6030   36.2310    2.8230 C.3     6  LYS6        0.1561
      3  C         24.2630   36.3440    4.1830 C.2     6  LYS6        0.2260
      4  O         23.5800   36.3950    5.2080 O.2     6  LYS6       -0.2867
      5  CB        22.9320   37.5510    2.4530 C.3     6  LYS6        0.0271
      6  CG        23.9110   38.6170    2.0040 C.3     6  LYS6        0.0035
      7  CD        23.2000   39.9100    1.6540 C.3     6  LYS6        0.0206
      8  CE        24.0870   40.8170    0.8120 C.3     6  LYS6        0.1093
      9  NZ        25.3960   41.0990    1.4620 N.3     6  LYS6       -0.1314
     10  N         27.2500   38.4640    6.4570 N.3     8  LEU8       -0.1245
     11  CA        28.1270   39.6210    6.5710 C.3     8  LEU8        0.1561
     12  C         29.0340   39.5120    7.7880 C.2     8  LEU8        0.2260
     13  O         28.6790   38.8920    8.7920 O.2     8  LEU8       -0.2867
     14  CB        27.3060   40.9130    6.6680 C.3     8  LEU8        0.0270
     15  CG        26.4880   41.3200    5.4410 C.3     8  LEU8        0.0019
     16  CD1       25.7060   42.5880    5.7580 C.3     8  LEU8        0.0001
     17  CD2       27.4110   41.5440    4.2490 C.3     8  LEU8        0.0001
     18  N         14.9730   34.9700    1.9470 N.3    97  THR97      -0.1218
     19  CA        16.3410   35.4630    2.0290 C.3    97  THR97       0.1862
     20  C         16.7080   35.3920    3.5030 C.2    97  THR97       0.2287
     21  O         16.1130   36.0790    4.3360 O.2    97  THR97      -0.2866
     22  CB        16.4870   36.9230    1.5650 C.3    97  THR97       0.1770
     23  OG1       16.2870   36.9980    0.1510 O.3    97  THR97      -0.2211
     24  CG2       17.8910   37.4350    1.8880 C.3    97  THR97       0.0375
     25  N         19.4340   36.1970    6.1260 N.3    99  ALA99      -0.1231
     26  CA        20.6340   37.0000    6.3040 C.3    99  ALA99       0.1694
     27  C         21.1960   36.8550    7.7040 C.2    99  ALA99       0.2592
     28  O         20.4470   36.7870    8.6800 O.2    99  ALA99      -0.2718
     29  CB        20.3210   38.4550    6.0280 C.3    99  ALA99       0.0304
     30  N         22.5210   36.8100    7.7990 N.am  100  ALA100     -0.1966
     31  CA        23.1740   36.6790    9.0920 C.3   100  ALA100      0.1728
     32  C         24.3500   37.6490    9.1790 C.2   100  ALA100      0.2616
     33  O         25.1350   37.7770    8.2360 O.2   100  ALA100     -0.2715
     34  CB        23.6520   35.2430    9.2890 C.3   100  ALA100      0.0334
     35  N         24.4490   38.3510   10.3040 N.am  101  LEU101     -0.1977
     36  CA        25.5380   39.2970   10.5490 C.3   101  LEU101      0.1596
     37  C         26.3540   38.6470   11.6520 C.2   101  LEU101      0.2287
     38  O         25.8330   38.3790   12.7360 O.2   101  LEU101     -0.2864
     39  CB        24.9930   40.6310   11.0390 C.3   101  LEU101      0.0297
     40  CG        26.0460   41.6810   11.3850 C.3   101  LEU101      0.0022
     41  CD1       26.8210   42.0730   10.1380 C.3   101  LEU101      0.0001
     42  CD2       25.3620   42.8820   11.9940 C.3   101  LEU101      0.0001
     43  N         23.3870   37.9550   14.4030 N.3   108  SER108     -0.1202
     44  CA        22.0180   38.3750   14.2620 C.3   108  SER108      0.2020
     45  C         21.5750   37.7350   12.9660 C.2   108  SER108      0.2619
     46  O         22.3770   37.5680   12.0440 O.2   108  SER108     -0.2717
     47  CB        21.9410   39.9020   14.1440 C.3   108  SER108      0.2103
     48  OG        20.6020   40.3280   13.9650 O.3   108  SER108     -0.2182
     49  N         20.3070   37.3570   12.8960 N.am  109  THR109     -0.1938
     50  CA        19.7780   36.7570   11.6930 C.3   109  THR109      0.2028
     51  C         18.3930   37.2820   11.4630 C.2   109  THR109      0.2642
     52  O         17.6000   37.4050   12.3980 O.2   109  THR109     -0.2714
     53  CB        19.7240   35.2240   11.7730 C.3   109  THR109      0.1808
     54  OG1       19.2680   34.7080   10.5190 O.3   109  THR109     -0.2208
     55  CG2       18.7690   34.7700   12.8710 C.3   109  THR109      0.0379
     56  N         18.0900   37.6010   10.2110 N.am  110  THR110     -0.1950
     57  CA        16.7780   38.0950    9.8680 C.3   110  THR110      0.1897
     58  C         16.3240   37.3810    8.6030 C.2   110  THR110      0.2313
     59  O         17.1360   36.8390    7.8540 O.2   110  THR110     -0.2863
     60  CB        16.7670   39.6270    9.6440 C.3   110  THR110      0.1794
     61  OG1       15.4090   40.0870    9.6380 O.3   110  THR110     -0.2208
     62  CG2       17.4220   39.9950    8.3140 C.3   110  THR110      0.0378
     63  N         13.7920   37.7460    5.1390 N.3   112  VAL112     -0.1245
     64  CA        13.0360   38.6440    4.2850 C.3   112  VAL112      0.1561
     65  C         12.2510   37.6490    3.4480 C.2   112  VAL112      0.2260
     66  O         12.8320   36.8420    2.7190 O.2   112  VAL112     -0.2867
     67  CB        13.9500   39.4900    3.3830 C.3   112  VAL112      0.0252
     68  CG1       13.1040   40.3480    2.4410 C.3   112  VAL112      0.0019
     69  CG2       14.8530   40.3620    4.2420 C.3   112  VAL112      0.0019
@<TRIPOS>BOND
     1    23    22    1
     2     8     9    1
     3     8     7    1
     4    22    24    1
     5    22    19    1
     6     7     6    1
     7    18    19    1
     8     6     5    1
     9    19    20    1
    10    68    67    1
    11     5     2    1
    12    66    65    2
    13     2     1    1
    14     2     3    1
    15    67    69    1
    16    67    64    1
    17    65    64    1
    18    20    21    2
    19     3     4    2
    20    17    15    1
    21    64    63    1
    22    15    16    1
    23    15    14    1
    24    29    26    1
    25    25    26    1
    26    26    27    1
    27    10    11    1
    28    11    14    1
    29    11    12    1
    30    27    30   am
    31    27    28    2
    32    12    13    2
    33    30    31    1
    34    59    58    2
    35    33    32    2
    36    62    60    1
    37    58    57    1
    38    31    32    1
    39    31    34    1
    40    32    35   am
    41    61    60    1
    42    60    57    1
    43    57    56    1
    44    41    40    1
    45    56    51   am
    46    35    36    1
    47    54    53    1
    48    36    39    1
    49    36    37    1
    50    39    40    1
    51    40    42    1
    52    51    50    1
    53    51    52    2
    54    37    38    2
    55    50    53    1
    56    50    49    1
    57    53    55    1
    58    46    45    2
    59    49    45   am
    60    45    44    1
    61    48    47    1
    62    47    44    1
    63    44    43    1
