@<TRIPOS>MOLECULE
tmp/1dvyA00.pdb
 86 78 0 0 0
SMALL
GASTEIGER

@<TRIPOS>ATOM
      1  N         17.9430   32.0360   -0.3830 N.3     4  MET4       -0.1245
      2  CA        19.2270   32.7040   -0.5170 C.3     4  MET4        0.1570
      3  C         19.7830   33.0310    0.8680 C.2     4  MET4        0.2261
      4  O         19.0280   33.2900    1.8030 O.2     4  MET4       -0.2867
      5  CB        19.0840   33.9870   -1.3310 C.3     4  MET4        0.0387
      6  CG        20.4250   34.6110   -1.6880 C.3     4  MET4        0.0595
      7  SD        20.2690   36.2570   -2.3820 S.3     4  MET4       -0.1393
      8  CE        20.4470   37.2510   -0.9070 C.3     4  MET4        0.0692
      9  N         22.7900   35.3340    3.0000 N.3     6  LYS6       -0.1245
     10  CA        23.7060   36.4570    2.9420 C.3     6  LYS6        0.1561
     11  C         24.3940   36.5620    4.2930 C.2     6  LYS6        0.2260
     12  O         23.7310   36.6350    5.3280 O.2     6  LYS6       -0.2867
     13  CB        22.9180   37.7360    2.6540 C.3     6  LYS6        0.0271
     14  CG        23.7270   39.0180    2.6980 C.3     6  LYS6        0.0035
     15  CD        24.5560   39.2130    1.4450 C.3     6  LYS6        0.0206
     16  CE        25.1850   40.6010    1.4270 C.3     6  LYS6        0.1093
     17  NZ        25.8850   40.8870    0.1480 N.3     6  LYS6       -0.1314
     18  N         27.3900   38.6180    6.5720 N.3     8  LEU8       -0.1245
     19  CA        28.2600   39.7790    6.7030 C.3     8  LEU8        0.1561
     20  C         29.1560   39.6730    7.9360 C.2     8  LEU8        0.2260
     21  O         28.7980   39.0430    8.9280 O.2     8  LEU8       -0.2867
     22  CB        27.4300   41.0590    6.8090 C.3     8  LEU8        0.0270
     23  CG        26.5490   41.4560    5.6210 C.3     8  LEU8        0.0019
     24  CD1       25.8570   42.7580    5.9630 C.3     8  LEU8        0.0001
     25  CD2       27.3920   41.6210    4.3610 C.3     8  LEU8        0.0001
     26  N         27.2920   35.9730   -0.4710 N.3    45  GLU45      -0.1245
     27  CA        26.0010   35.3760   -0.7890 C.3    45  GLU45       0.1567
     28  C         26.1020   33.9480   -1.2820 C.2    45  GLU45       0.2260
     29  O         27.1300   33.5190   -1.8000 O.2    45  GLU45      -0.2867
     30  CB        25.2910   36.2010   -1.8600 C.3    45  GLU45       0.0388
     31  CG        25.2680   37.6900   -1.5920 C.3    45  GLU45       0.1160
     32  CD        24.5640   38.4600   -2.6900 C.2    45  GLU45       0.3649
     33  OE1       24.8810   38.2300   -3.8770 O.co2  45  GLU45      -0.2457
     34  OE2       23.6990   39.2980   -2.3690 O.co2  45  GLU45      -0.2457
     35  N         15.1330   35.0160    2.0630 N.3    97  THR97      -0.1218
     36  CA        16.5010   35.4860    2.1400 C.3    97  THR97       0.1862
     37  C         16.8410   35.4440    3.6250 C.2    97  THR97       0.2287
     38  O         16.1830   36.0950    4.4440 O.2    97  THR97      -0.2866
     39  CB        16.6780   36.9270    1.6330 C.3    97  THR97       0.1770
     40  OG1       16.3290   36.9960    0.2460 O.3    97  THR97      -0.2211
     41  CG2       18.1380   37.3520    1.7950 C.3    97  THR97       0.0375
     42  N         19.5890   36.2940    6.3120 N.3    99  ALA99      -0.1231
     43  CA        20.7740   37.1170    6.4880 C.3    99  ALA99       0.1694
     44  C         21.3530   36.9460    7.8770 C.2    99  ALA99       0.2592
     45  O         20.6130   36.8100    8.8500 O.2    99  ALA99      -0.2718
     46  CB        20.4280   38.5700    6.2480 C.3    99  ALA99       0.0304
     47  N         22.6800   36.9490    7.9590 N.am  100  ALA100     -0.1966
     48  CA        23.3650   36.8090    9.2330 C.3   100  ALA100      0.1728
     49  C         24.4920   37.8370    9.3330 C.2   100  ALA100      0.2616
     50  O         25.2380   38.0580    8.3760 O.2   100  ALA100     -0.2715
     51  CB        23.9250   35.3940    9.3770 C.3   100  ALA100      0.0334
     52  N         24.5980   38.4670   10.4970 N.am  101  LEU101     -0.1977
     53  CA        25.6330   39.4550   10.7710 C.3   101  LEU101      0.1596
     54  C         26.4830   38.8130   11.8620 C.2   101  LEU101      0.2287
     55  O         25.9930   38.5300   12.9520 O.2   101  LEU101     -0.2864
     56  CB        24.9950   40.7530   11.2620 C.3   101  LEU101      0.0297
     57  CG        25.9440   41.8890   11.6460 C.3   101  LEU101      0.0022
     58  CD1       26.8740   42.1960   10.4820 C.3   101  LEU101      0.0001
     59  CD2       25.1400   43.1110   12.0270 C.3   101  LEU101      0.0001
     60  N         23.4750   38.0940   14.5990 N.3   108  SER108     -0.1202
     61  CA        22.0880   38.4640   14.4170 C.3   108  SER108      0.2020
     62  C         21.6830   37.8100   13.1210 C.2   108  SER108      0.2619
     63  O         22.5030   37.6530   12.2130 O.2   108  SER108     -0.2717
     64  CB        21.9500   39.9850   14.2720 C.3   108  SER108      0.2103
     65  OG        22.4930   40.6550   15.3980 O.3   108  SER108     -0.2182
     66  N         20.4320   37.4020   13.0370 N.am  109  THR109     -0.1938
     67  CA        19.9470   36.8050   11.8160 C.3   109  THR109      0.2028
     68  C         18.5700   37.3630   11.5740 C.2   109  THR109      0.2642
     69  O         17.7890   37.5320   12.5070 O.2   109  THR109     -0.2714
     70  CB        19.8730   35.2650   11.8900 C.3   109  THR109      0.1808
     71  OG1       19.4540   34.7660   10.6150 O.3   109  THR109     -0.2208
     72  CG2       18.8780   34.7990   12.9600 C.3   109  THR109      0.0379
     73  N         18.2880   37.6810   10.3220 N.am  110  THR110     -0.1950
     74  CA        16.9910   38.2040    9.9780 C.3   110  THR110      0.1897
     75  C         16.5420   37.5040    8.7190 C.2   110  THR110      0.2313
     76  O         17.3570   36.9670    7.9640 O.2   110  THR110     -0.2863
     77  CB        17.0280   39.7330    9.7520 C.3   110  THR110      0.1794
     78  OG1       15.6880   40.2280    9.6480 O.3   110  THR110     -0.2208
     79  CG2       17.7750   40.0760    8.4780 C.3   110  THR110      0.0378
     80  N         13.9680   37.8520    5.2590 N.3   112  VAL112     -0.1245
     81  CA        13.1570   38.7120    4.4130 C.3   112  VAL112      0.1561
     82  C         12.3860   37.6980    3.5900 C.2   112  VAL112      0.2260
     83  O         12.9820   36.8540    2.9140 O.2   112  VAL112     -0.2867
     84  CB        14.0110   39.5990    3.4970 C.3   112  VAL112      0.0252
     85  CG1       13.1150   40.3910    2.5530 C.3   112  VAL112      0.0019
     86  CG2       14.8550   40.5380    4.3410 C.3   112  VAL112      0.0019
@<TRIPOS>BOND
     1    33    32   ar
     2    32    34   ar
     3    32    31    1
     4     7     6    1
     5     7     8    1
     6    30    31    1
     7    30    27    1
     8    29    28    2
     9     6     5    1
    10     5     2    1
    11    28    27    1
    12    27    26    1
    13     2     1    1
    14     2     3    1
    15    17    16    1
    16    40    39    1
    17     3     4    2
    18    16    15    1
    19    15    14    1
    20    39    41    1
    21    39    36    1
    22    35    36    1
    23    36    37    1
    24    85    84    1
    25    13    14    1
    26    13    10    1
    27    83    82    2
    28    10     9    1
    29    10    11    1
    30    84    86    1
    31    84    81    1
    32    82    81    1
    33    37    38    2
    34    11    12    2
    35    25    23    1
    36    81    80    1
    37    23    24    1
    38    23    22    1
    39    46    43    1
    40    42    43    1
    41    43    44    1
    42    18    19    1
    43    19    22    1
    44    19    20    1
    45    44    47   am
    46    44    45    2
    47    20    21    2
    48    47    48    1
    49    76    75    2
    50    50    49    2
    51    79    77    1
    52    75    74    1
    53    48    49    1
    54    48    51    1
    55    49    52   am
    56    78    77    1
    57    77    74    1
    58    74    73    1
    59    73    68   am
    60    58    57    1
    61    52    53    1
    62    71    70    1
    63    53    56    1
    64    53    54    1
    65    56    57    1
    66    68    67    1
    67    68    69    2
    68    57    59    1
    69    67    70    1
    70    67    66    1
    71    54    55    2
    72    70    72    1
    73    63    62    2
    74    66    62   am
    75    62    61    1
    76    64    61    1
    77    64    65    1
    78    61    60    1
