@<TRIPOS>MOLECULE
tmp/1dvzA00.pdb
 69 63 0 0 0
SMALL
GASTEIGER

@<TRIPOS>ATOM
      1  N         22.5350   35.1390    2.9990 N.3     6  LYS6       -0.1245
      2  CA        23.5230   36.2030    2.9080 C.3     6  LYS6        0.1561
      3  C         24.1700   36.3510    4.2750 C.2     6  LYS6        0.2260
      4  O         23.4820   36.4030    5.2970 O.2     6  LYS6       -0.2867
      5  CB        22.8650   37.5190    2.4850 C.3     6  LYS6        0.0271
      6  CG        23.8590   38.6120    2.1250 C.3     6  LYS6        0.0035
      7  CD        23.1720   39.8000    1.4640 C.3     6  LYS6        0.0206
      8  CE        24.1920   40.8350    0.9950 C.3     6  LYS6        0.1093
      9  NZ        23.5430   41.9520    0.2510 N.3     6  LYS6       -0.1314
     10  N         27.1420   38.5240    6.5610 N.3     8  LEU8       -0.1245
     11  CA        28.0260   39.6750    6.6550 C.3     8  LEU8        0.1561
     12  C         28.9250   39.5680    7.8720 C.2     8  LEU8        0.2260
     13  O         28.5990   38.9010    8.8580 O.2     8  LEU8       -0.2867
     14  CB        27.2220   40.9600    6.7580 C.3     8  LEU8        0.0270
     15  CG        26.4720   41.4180    5.5130 C.3     8  LEU8        0.0019
     16  CD1       25.5880   42.5500    5.9270 C.3     8  LEU8        0.0001
     17  CD2       27.4360   41.8650    4.4160 C.3     8  LEU8        0.0001
     18  N         14.9200   34.8960    2.0860 N.3    97  THR97      -0.1218
     19  CA        16.2750   35.3980    2.1690 C.3    97  THR97       0.1862
     20  C         16.6140   35.3380    3.6460 C.2    97  THR97       0.2287
     21  O         15.9760   35.9980    4.4690 O.2    97  THR97      -0.2866
     22  CB        16.4070   36.8480    1.6890 C.3    97  THR97       0.1770
     23  OG1       16.1500   36.9090    0.2810 O.3    97  THR97      -0.2211
     24  CG2       17.8260   37.3640    1.9650 C.3    97  THR97       0.0375
     25  N         19.3680   36.1400    6.2740 N.3    99  ALA99      -0.1231
     26  CA        20.5700   36.9400    6.4330 C.3    99  ALA99       0.1694
     27  C         21.1170   36.8410    7.8430 C.2    99  ALA99       0.2592
     28  O         20.3640   36.7440    8.8100 O.2    99  ALA99      -0.2718
     29  CB        20.2730   38.3830    6.0930 C.3    99  ALA99       0.0304
     30  N         22.4390   36.8700    7.9520 N.am  100  ALA100     -0.1966
     31  CA        23.0830   36.7880    9.2500 C.3   100  ALA100      0.1728
     32  C         24.2470   37.7640    9.3220 C.2   100  ALA100      0.2616
     33  O         25.0280   37.8930    8.3760 O.2   100  ALA100     -0.2715
     34  CB        23.5730   35.3670    9.4970 C.3   100  ALA100      0.0334
     35  N         24.3370   38.4610   10.4470 N.am  101  LEU101     -0.1977
     36  CA        25.4060   39.4160   10.6970 C.3   101  LEU101      0.1596
     37  C         26.2310   38.7740   11.7990 C.2   101  LEU101      0.2287
     38  O         25.7380   38.5640   12.9080 O.2   101  LEU101     -0.2864
     39  CB        24.8300   40.7460   11.1700 C.3   101  LEU101      0.0297
     40  CG        25.8630   41.8120   11.5380 C.3   101  LEU101      0.0022
     41  CD1       26.7420   42.1200   10.3280 C.3   101  LEU101      0.0001
     42  CD2       25.1440   43.0600   12.0120 C.3   101  LEU101      0.0001
     43  N         23.3060   38.1060   14.5530 N.3   108  SER108     -0.1202
     44  CA        21.9350   38.5310   14.3950 C.3   108  SER108      0.2020
     45  C         21.4890   37.8980   13.1020 C.2   108  SER108      0.2619
     46  O         22.2680   37.7880   12.1550 O.2   108  SER108     -0.2717
     47  CB        21.8470   40.0530   14.2730 C.3   108  SER108      0.2103
     48  OG        22.3540   40.6870   15.4330 O.3   108  SER108     -0.2182
     49  N         20.2430   37.4630   13.0610 N.am  109  THR109     -0.1938
     50  CA        19.7390   36.8710   11.8450 C.3   109  THR109      0.2028
     51  C         18.3500   37.4100   11.6130 C.2   109  THR109      0.2642
     52  O         17.6000   37.6510   12.5580 O.2   109  THR109     -0.2714
     53  CB        19.6850   35.3330   11.9330 C.3   109  THR109      0.1808
     54  OG1       19.2990   34.8000   10.6610 O.3   109  THR109     -0.2208
     55  CG2       18.6760   34.8830   12.9910 C.3   109  THR109      0.0379
     56  N         18.0240   37.6450   10.3530 N.am  110  THR110     -0.1950
     57  CA        16.7020   38.1210   10.0260 C.3   110  THR110      0.1897
     58  C         16.2790   37.4010    8.7620 C.2   110  THR110      0.2313
     59  O         17.0940   36.7810    8.0790 O.2   110  THR110     -0.2863
     60  CB        16.6630   39.6520    9.8060 C.3   110  THR110      0.1794
     61  OG1       15.2980   40.0910    9.8080 O.3   110  THR110     -0.2208
     62  CG2       17.3030   40.0330    8.4800 C.3   110  THR110      0.0378
     63  N         13.7510   37.7630    5.2000 N.3   112  VAL112     -0.1245
     64  CA        12.9610   38.6270    4.3380 C.3   112  VAL112      0.1561
     65  C         12.1850   37.6150    3.5130 C.2   112  VAL112      0.2260
     66  O         12.7750   36.7560    2.8560 O.2   112  VAL112     -0.2867
     67  CB        13.8400   39.4910    3.4250 C.3   112  VAL112      0.0252
     68  CG1       12.9650   40.3490    2.5170 C.3   112  VAL112      0.0019
     69  CG2       14.7470   40.3680    4.2700 C.3   112  VAL112      0.0019
@<TRIPOS>BOND
     1     9     8    1
     2    23    22    1
     3     8     7    1
     4     7     6    1
     5    22    24    1
     6    22    19    1
     7    18    19    1
     8     6     5    1
     9    19    20    1
    10     5     2    1
    11    68    67    1
    12    66    65    2
    13     2     1    1
    14     2     3    1
    15    67    69    1
    16    67    64    1
    17    65    64    1
    18    20    21    2
    19     3     4    2
    20    64    63    1
    21    17    15    1
    22    15    16    1
    23    15    14    1
    24    29    26    1
    25    25    26    1
    26    26    27    1
    27    10    11    1
    28    11    14    1
    29    11    12    1
    30    27    30   am
    31    27    28    2
    32    12    13    2
    33    30    31    1
    34    59    58    2
    35    33    32    2
    36    62    60    1
    37    58    57    1
    38    31    32    1
    39    31    34    1
    40    32    35   am
    41    60    61    1
    42    60    57    1
    43    57    56    1
    44    41    40    1
    45    56    51   am
    46    35    36    1
    47    54    53    1
    48    36    39    1
    49    36    37    1
    50    39    40    1
    51    40    42    1
    52    51    50    1
    53    51    52    2
    54    37    38    2
    55    50    53    1
    56    50    49    1
    57    53    55    1
    58    46    45    2
    59    49    45   am
    60    45    44    1
    61    47    44    1
    62    47    48    1
    63    44    43    1
