@<TRIPOS>MOLECULE
tmp/1dwdB00.pdb
 148 139 0 0 0
SMALL
GASTEIGER

@<TRIPOS>ATOM
      1  N         41.1340   21.9330    9.9820 N.3    17  MET17      -0.1245
      2  CA        39.8190   21.3400    9.8880 C.3    17  MET17       0.1570
      3  C         39.9700   19.8820    9.3860 C.2    17  MET17       0.2261
      4  O         40.6570   19.6200    8.3950 O.2    17  MET17      -0.2867
      5  CB        38.8920   22.1290    8.9130 C.3    17  MET17       0.0387
      6  CG        37.4690   21.5620    8.8600 C.3    17  MET17       0.0595
      7  SD        36.3990   22.1790    7.5070 S.3    17  MET17      -0.1393
      8  CE        35.9190   23.8390    8.0220 C.3    17  MET17       0.0692
      9  N         38.3750   17.1210    7.5280 N.3    19  PHE19      -0.1241
     10  CA        37.2970   16.8670    6.5990 C.3    19  PHE19       0.1605
     11  C         37.2150   15.4080    6.1270 C.2    19  PHE19       0.2264
     12  O         38.2290   14.7810    5.7590 O.2    19  PHE19      -0.2867
     13  CB        37.4990   17.7760    5.3840 C.3    19  PHE19       0.0534
     14  CG        36.2520   18.0950    4.5830 C.ar   19  PHE19      -0.0203
     15  CD1       35.2410   18.8930    5.1350 C.ar   19  PHE19      -0.0042
     16  CD2       36.1170   17.6310    3.2930 C.ar   19  PHE19      -0.0042
     17  CE1       34.0780   19.2150    4.4040 C.ar   19  PHE19      -0.0003
     18  CE2       34.9560   17.9350    2.5450 C.ar   19  PHE19      -0.0003
     19  CZ        33.9470   18.7290    3.1190 C.ar   19  PHE19      -0.0000
     20  N         35.8100   12.6100    3.4170 N.3    21  LYS21      -0.1245
     21  CA        35.5710   12.6140    1.9560 C.3    21  LYS21       0.1561
     22  C         34.1240   12.3900    1.5090 C.2    21  LYS21       0.2260
     23  O         33.5440   13.2190    0.7870 O.2    21  LYS21      -0.2867
     24  CB        36.4610   11.6410    1.2420 C.3    21  LYS21       0.0271
     25  CG        37.9170   12.0110    1.2800 C.3    21  LYS21       0.0035
     26  CD        38.7830   10.9510    0.6340 C.3    21  LYS21       0.0206
     27  CE        40.2130   11.4080    0.4930 C.3    21  LYS21       0.1093
     28  NZ        41.1120   10.3910   -0.0770 N.3    21  LYS21      -0.1314
     29  N         30.7620   14.0620    2.6200 N.3    24  GLN24      -0.1231
     30  CA        31.5610   15.2130    2.9390 C.3    24  GLN24       0.1698
     31  C         31.0040   15.8500    4.1770 C.2    24  GLN24       0.2592
     32  O         29.8600   16.3000    4.2120 O.2    24  GLN24      -0.2718
     33  CB        31.5620   16.2790    1.8550 C.3    24  GLN24       0.0381
     34  CG        32.4090   15.9770    0.6290 C.3    24  GLN24       0.0905
     35  CD        32.2780   17.1320   -0.3540 C.2    24  GLN24       0.2608
     36  OE1       33.2480   17.5780   -1.0130 O.2    24  GLN24      -0.2717
     37  NE2       31.0570   17.6450   -0.4430 N.am   24  GLN24      -0.0878
     38  N         31.8140   15.8920    5.1960 N.am   25  GLU25      -0.1966
     39  CA        31.3780   16.4990    6.4190 C.3    25  GLU25       0.1733
     40  C         32.5230   16.8290    7.3250 C.2    25  GLU25       0.2616
     41  O         33.6070   16.2660    7.2050 O.2    25  GLU25      -0.2715
     42  CB        30.3770   15.6380    7.1570 C.3    25  GLU25       0.0429
     43  CG        30.9960   14.2880    7.4640 C.3    25  GLU25       0.1163
     44  CD        30.1770   13.5060    8.4230 C.2    25  GLU25       0.3649
     45  OE1       29.3570   14.0390    9.1680 O.co2  25  GLU25      -0.2457
     46  OE2       30.4500   12.2070    8.3840 O.co2  25  GLU25      -0.2457
     47  N         32.2590   17.7440    8.2370 N.am   26  LEU26      -0.1977
     48  CA        33.2470   18.1700    9.1830 C.3    26  LEU26       0.1596
     49  C         33.3930   17.1920   10.3290 C.2    26  LEU26       0.2287
     50  O         32.4760   17.0000   11.1180 O.2    26  LEU26      -0.2864
     51  CB        32.9700   19.6170    9.6410 C.3    26  LEU26       0.0297
     52  CG        33.9490   20.1700   10.6640 C.3    26  LEU26       0.0022
     53  CD1       34.2150   21.6210   10.3230 C.3    26  LEU26       0.0001
     54  CD2       33.2910   20.1380   12.0150 C.3    26  LEU26       0.0001
     55  N         40.7190   14.1150    4.8760 N.3    60  LEU60      -0.1245
     56  CA        41.3550   15.2490    4.3040 C.3    60  LEU60       0.1561
     57  C         41.6180   16.2230    5.4370 C.2    60  LEU60       0.2260
     58  O         40.9240   16.2070    6.4620 O.2    60  LEU60      -0.2867
     59  CB        40.5070   15.9410    3.2310 C.3    60  LEU60       0.0270
     60  CG        40.5470   15.2030    1.9150 C.3    60  LEU60       0.0019
     61  CD1       39.5150   15.7800    0.9630 C.3    60  LEU60       0.0001
     62  CD2       41.9440   15.3160    1.3190 C.3    60  LEU60       0.0001
     63  N         42.2250   20.3270    5.9710 N.3    62  ARG62      -0.1245
     64  CA        42.0900   21.6380    5.3750 C.3    62  ARG62       0.1563
     65  C         42.6050   22.6880    6.3270 C.2    62  ARG62       0.2260
     66  O         42.0080   22.9000    7.3990 O.2    62  ARG62      -0.2867
     67  CB        40.6520   21.8860    5.0010 C.3    62  ARG62       0.0307
     68  CG        40.0970   20.7910    4.1020 C.3    62  ARG62       0.0489
     69  CD        38.6000   20.9380    3.7910 C.3    62  ARG62       0.2205
     70  NE        38.2660   22.1770    3.0730 N.pl3  62  ARG62      -0.0865
     71  CZ        37.0310   22.5010    2.6730 C.cat  62  ARG62       0.5346
     72  NH1       36.0000   21.6970    2.9060 N.pl3  62  ARG62       0.1354
     73  NH2       36.8240   23.6600    2.0330 N.pl3  62  ARG62       0.1354
     74  N         33.3740   28.1250    7.4850 N.3    68  ARG68      -0.1231
     75  CA        33.1650   26.7390    7.7400 C.3    68  ARG68       0.1694
     76  C         32.8760   25.9380    6.4960 C.2    68  ARG68       0.2593
     77  O         33.3930   24.8260    6.3400 O.2    68  ARG68      -0.2718
     78  CB        32.0160   26.5180    8.7280 C.3    68  ARG68       0.0321
     79  CG        31.7240   25.0310    8.9580 C.3    68  ARG68       0.0489
     80  CD        30.5820   24.7700    9.9370 C.3    68  ARG68       0.2205
     81  NE        29.3390   25.3890    9.4830 N.pl3  68  ARG68      -0.0865
     82  CZ        28.4310   24.7820    8.7000 C.cat  68  ARG68       0.5346
     83  NH1       28.5970   23.5150    8.2770 N.pl3  68  ARG68       0.1354
     84  NH2       27.3350   25.4670    8.3390 N.pl3  68  ARG68       0.1354
     85  N         32.0190   26.4960    5.6270 N.am   69  THR69      -0.1939
     86  CA        31.5590   25.8100    4.4120 C.3    69  THR69       0.2028
     87  C         32.2160   26.1190    3.1000 C.2    69  THR69       0.2642
     88  O         32.2650   25.2670    2.2300 O.2    69  THR69      -0.2714
     89  CB        30.0440   26.0170    4.2440 C.3    69  THR69       0.1808
     90  OG1       29.7920   27.4170    4.1040 O.3    69  THR69      -0.2208
     91  CG2       29.2730   25.4480    5.4450 C.3    69  THR69       0.0379
     92  N         32.6930   27.3290    2.9220 N.am   70  ARG70      -0.1963
     93  CA        33.3130   27.6840    1.6510 C.3    70  ARG70       0.1729
     94  C         34.5820   26.9540    1.3360 C.2    70  ARG70       0.2616
     95  O         35.2430   26.3780    2.2030 O.2    70  ARG70      -0.2715
     96  CB        33.6390   29.1640    1.5840 C.3    70  ARG70       0.0348
     97  CG        32.3980   30.0080    1.7120 C.3    70  ARG70       0.0492
     98  CD        32.7130   31.4640    1.5800 C.3    70  ARG70       0.2205
     99  NE        31.5380   32.2790    1.7210 N.pl3  70  ARG70      -0.0865
    100  CZ        31.6000   33.5940    1.7590 C.cat  70  ARG70       0.5346
    101  NH1       32.7590   34.2210    1.6650 N.pl3  70  ARG70       0.1354
    102  NH2       30.4870   34.3160    1.8880 N.pl3  70  ARG70       0.1354
    103  N         34.9210   27.0130    0.0610 N.am   71  TYR71      -0.1974
    104  CA        36.1460   26.4570   -0.4150 C.3    71  TYR71       0.1639
    105  C         36.9780   27.6790   -0.7260 C.2    71  TYR71       0.2290
    106  O         36.8200   28.2680   -1.7900 O.2    71  TYR71      -0.2864
    107  CB        35.9740   25.6120   -1.6510 C.3    71  TYR71       0.0560
    108  CG        37.2960   25.3720   -2.3300 C.ar   71  TYR71      -0.0198
    109  CD1       38.4170   25.0080   -1.5910 C.ar   71  TYR71      -0.0009
    110  CD2       37.4240   25.5030   -3.7070 C.ar   71  TYR71      -0.0009
    111  CE1       39.6520   24.7820   -2.2000 C.ar   71  TYR71       0.0417
    112  CE2       38.6400   25.2830   -4.3460 C.ar   71  TYR71       0.0417
    113  CZ        39.7510   24.9250   -3.5850 C.ar   71  TYR71       0.1957
    114  OH        40.9380   24.7110   -4.2000 O.3    71  TYR71      -0.2866
    115  N         44.5070   22.1500    1.0000 N.3    78  ILE78      -0.1245
    116  CA        43.9860   20.8170    1.2310 C.3    78  ILE78       0.1561
    117  C         45.0130   19.7200    1.1690 C.2    78  ILE78       0.2260
    118  O         45.6020   19.5150    0.1360 O.2    78  ILE78      -0.2867
    119  CB        42.8530   20.5550    0.2870 C.3    78  ILE78       0.0252
    120  CG1       41.9060   21.7430    0.4070 C.3    78  ILE78       0.0019
    121  CG2       42.1410   19.2790    0.7310 C.3    78  ILE78       0.0019
    122  CD1       40.5340   21.4920   -0.1950 C.3    78  ILE78       0.0001
    123  N         46.5190   15.5890    2.1650 N.3    80  MET80      -0.1245
    124  CA        46.2110   14.2130    2.3350 C.3    80  MET80       0.1570
    125  C         47.0980   13.5860    3.3630 C.2    80  MET80       0.2261
    126  O         48.2630   13.9220    3.4920 O.2    80  MET80      -0.2867
    127  CB        46.2560   13.4550    1.0270 C.3    80  MET80       0.0387
    128  CG        45.4870   14.1680   -0.0550 C.3    80  MET80       0.0595
    129  SD        45.2000   13.0990   -1.4890 S.3    80  MET80      -0.1393
    130  CE        45.0750   14.4000   -2.7540 C.3    80  MET80       0.0692
    131  N         20.2600   27.2710   12.3350 N.3   154  LYS154     -0.1245
    132  CA        21.4620   26.5450   11.9110 C.3   154  LYS154      0.1561
    133  C         22.3830   26.4160   13.1070 C.2   154  LYS154      0.2260
    134  O         22.9670   27.4000   13.5580 O.2   154  LYS154     -0.2867
    135  CB        22.1590   27.2100   10.7270 C.3   154  LYS154      0.0271
    136  CG        23.2300   26.2510   10.1410 C.3   154  LYS154      0.0035
    137  CD        23.7660   26.6950    8.8280 C.3   154  LYS154      0.0206
    138  CE        24.5780   27.9570    9.0190 C.3   154  LYS154      0.1093
    139  NZ        24.9450   28.5140    7.7260 N.3   154  LYS154     -0.1314
    140  N         25.2070   25.3700   13.3630 N.3   156  GLN156     -0.1245
    141  CA        26.5730   25.6460   13.0850 C.3   156  GLN156      0.1566
    142  C         26.8600   27.0490   12.6260 C.2   156  GLN156      0.2260
    143  O         26.0330   27.6750   11.9680 O.2   156  GLN156     -0.2867
    144  CB        27.1770   24.6460   12.1320 C.3   156  GLN156      0.0367
    145  CG        27.0160   23.1800   12.5570 C.3   156  GLN156      0.0905
    146  CD        25.7500   22.5470   12.0430 C.2   156  GLN156      0.2608
    147  OE1       24.9860   23.1740   11.3100 O.2   156  GLN156     -0.2717
    148  NE2       25.5300   21.2890   12.4080 N.am  156  GLN156     -0.0878
@<TRIPOS>BOND
     1   112   110   ar
     2   112   113   ar
     3   114   113    1
     4   110   108   ar
     5   113   111   ar
     6   130   129    1
     7   108   107    1
     8   108   109   ar
     9   111   109   ar
    10   106   105    2
    11   107   104    1
    12   129   128    1
    13    36    35    2
    14   105   104    1
    15    37    35   am
    16   104   103    1
    17    35    34    1
    18   122   120    1
    19    28    27    1
    20   128   127    1
    21   103    94   am
    22   118   117    2
    23   119   120    1
    24   119   121    1
    25   119   116    1
    26    27    26    1
    27    34    33    1
    28    26    25    1
    29    23    22    2
    30    61    60    1
    31   115   116    1
    32   127   124    1
    33   117   116    1
    34    24    25    1
    35    24    21    1
    36    62    60    1
    37    94    93    1
    38    94    95    2
    39    22    21    1
    40    98    97    1
    41    98    99    1
    42    96    93    1
    43    96    97    1
    44    93    92    1
    45   101   100    1
    46    99   100    2
    47   100   102    1
    48    33    30    1
    49    60    59    1
    50    21    20    1
    51    73    71    1
    52   123   124    1
    53    88    87    2
    54   124   125    1
    55    18    19   ar
    56    18    16   ar
    57    29    30    1
    58    71    72    1
    59    71    70    2
    60    92    87   am
    61    30    31    1
    62    70    69    1
    63    87    86    1
    64    19    17   ar
    65    59    56    1
    66    16    14   ar
    67   125   126    2
    68    69    68    1
    69    68    67    1
    70    90    89    1
    71    31    32    2
    72    31    38   am
    73    89    86    1
    74    89    91    1
    75    56    55    1
    76    56    57    1
    77    17    15   ar
    78    86    85    1
    79    14    15   ar
    80    14    13    1
    81    67    64    1
    82    38    39    1
    83    64    63    1
    84    64    65    1
    85    13    10    1
    86    57    58    2
    87    85    76   am
    88    12    11    2
    89    11    10    1
    90    65    66    2
    91    77    76    2
    92    39    42    1
    93    39    40    1
    94    76    75    1
    95    10     9    1
    96    42    43    1
    97    41    40    2
    98    40    47   am
    99    43    44    1
   100    74    75    1
   101     7     8    1
   102     7     6    1
   103   139   138    1
   104    75    78    1
   105    47    48    1
   106    83    82    1
   107    84    82    1
   108    46    44   ar
   109     4     3    2
   110    44    45   ar
   111    82    81    2
   112    78    79    1
   113   137   138    1
   114   137   136    1
   115     6     5    1
   116     5     2    1
   117    79    80    1
   118    48    51    1
   119    48    49    1
   120     3     2    1
   121    81    80    1
   122    51    52    1
   123     2     1    1
   124   136   135    1
   125    53    52    1
   126    49    50    2
   127    52    54    1
   128   135   132    1
   129   147   146    2
   130   132   131    1
   131   132   133    1
   132   143   142    2
   133   146   148   am
   134   146   145    1
   135   144   145    1
   136   144   141    1
   137   142   141    1
   138   141   140    1
   139   133   134    2
