@<TRIPOS>MOLECULE
tmp/1dweB00.pdb
 148 139 0 0 0
SMALL
GASTEIGER

@<TRIPOS>ATOM
      1  N         40.8820   21.8340   10.0140 N.3    17  MET17      -0.1245
      2  CA        39.5700   21.2170    9.9340 C.3    17  MET17       0.1570
      3  C         39.7400   19.7710    9.4470 C.2    17  MET17       0.2261
      4  O         40.4810   19.4800    8.5000 O.2    17  MET17      -0.2867
      5  CB        38.6210   21.9900    8.9850 C.3    17  MET17       0.0387
      6  CG        37.2790   21.2900    8.7450 C.3    17  MET17       0.0595
      7  SD        36.2870   21.9970    7.3980 S.3    17  MET17      -0.1393
      8  CE        35.6710   23.5330    8.0910 C.3    17  MET17       0.0692
      9  N         38.1050   17.0360    7.5630 N.3    19  PHE19      -0.1241
     10  CA        37.0170   16.7770    6.6300 C.3    19  PHE19       0.1605
     11  C         36.8920   15.3100    6.1810 C.2    19  PHE19       0.2264
     12  O         37.8710   14.6170    5.8350 O.2    19  PHE19      -0.2867
     13  CB        37.1980   17.6810    5.3930 C.3    19  PHE19       0.0534
     14  CG        35.9670   17.9170    4.5230 C.ar   19  PHE19      -0.0203
     15  CD1       34.8940   18.7000    4.9720 C.ar   19  PHE19      -0.0042
     16  CD2       35.8930   17.3820    3.2360 C.ar   19  PHE19      -0.0042
     17  CE1       33.7630   18.9400    4.1820 C.ar   19  PHE19      -0.0003
     18  CE2       34.7650   17.6040    2.4400 C.ar   19  PHE19      -0.0003
     19  CZ        33.7020   18.3820    2.9010 C.ar   19  PHE19      -0.0000
     20  N         35.6020   12.5600    3.4870 N.3    21  LYS21      -0.1245
     21  CA        35.3880   12.4530    2.0350 C.3    21  LYS21       0.1561
     22  C         33.9700   12.1390    1.5830 C.2    21  LYS21       0.2260
     23  O         33.4110   12.8310    0.7340 O.2    21  LYS21      -0.2867
     24  CB        36.2970   11.4460    1.4180 C.3    21  LYS21       0.0271
     25  CG        37.6730   11.9680    1.1570 C.3    21  LYS21       0.0035
     26  CD        38.5880   10.8210    0.8470 C.3    21  LYS21       0.0206
     27  CE        39.9010   11.2290    0.2480 C.3    21  LYS21       0.1093
     28  NZ        40.7670   10.0710   -0.0230 N.3    21  LYS21      -0.1314
     29  N         30.5270   13.9360    2.4500 N.3    24  GLN24      -0.1231
     30  CA        31.2710   15.0960    2.8620 C.3    24  GLN24       0.1698
     31  C         30.7100   15.6230    4.1610 C.2    24  GLN24       0.2592
     32  O         29.5170   15.8420    4.2870 O.2    24  GLN24      -0.2718
     33  CB        31.2220   16.2130    1.8130 C.3    24  GLN24       0.0381
     34  CG        31.9470   15.8830    0.5020 C.3    24  GLN24       0.0905
     35  CD        31.8030   17.0130   -0.4860 C.2    24  GLN24       0.2608
     36  OE1       32.7880   17.5910   -1.0110 O.2    24  GLN24      -0.2717
     37  NE2       30.5500   17.3530   -0.7380 N.am   24  GLN24      -0.0878
     38  N         31.5600   15.8320    5.1280 N.am   25  GLU25      -0.1966
     39  CA        31.0750   16.3530    6.3540 C.3    25  GLU25       0.1733
     40  C         32.2080   16.7030    7.2750 C.2    25  GLU25       0.2616
     41  O         33.2980   16.1990    7.1100 O.2    25  GLU25      -0.2715
     42  CB        30.1100   15.4140    7.0250 C.3    25  GLU25       0.0429
     43  CG        30.8260   14.1400    7.4440 C.3    25  GLU25       0.1163
     44  CD        29.9800   13.2540    8.3120 C.2    25  GLU25       0.3649
     45  OE1       28.8580   13.5820    8.6960 O.co2  25  GLU25      -0.2457
     46  OE2       30.5740   12.1010    8.6070 O.co2  25  GLU25      -0.2457
     47  N         31.9390   17.5730    8.2420 N.am   26  LEU26      -0.1977
     48  CA        32.9250   17.9870    9.2100 C.3    26  LEU26       0.1596
     49  C         33.0880   17.0180   10.3920 C.2    26  LEU26       0.2287
     50  O         32.1940   16.8290   11.1910 O.2    26  LEU26      -0.2864
     51  CB        32.6960   19.4730    9.6460 C.3    26  LEU26       0.0297
     52  CG        33.6630   20.0200   10.7290 C.3    26  LEU26       0.0022
     53  CD1       34.0380   21.4620   10.3810 C.3    26  LEU26       0.0001
     54  CD2       32.9540   20.0190   12.0860 C.3    26  LEU26       0.0001
     55  N         40.4380   13.8890    4.8370 N.3    60  LEU60      -0.1245
     56  CA        41.1200   15.0090    4.3060 C.3    60  LEU60       0.1561
     57  C         41.2730   16.0170    5.4540 C.2    60  LEU60       0.2260
     58  O         40.4400   16.0940    6.3570 O.2    60  LEU60      -0.2867
     59  CB        40.3620   15.6760    3.1620 C.3    60  LEU60       0.0270
     60  CG        40.2340   14.8320    1.9130 C.3    60  LEU60       0.0019
     61  CD1       39.1050   15.4100    1.0580 C.3    60  LEU60       0.0001
     62  CD2       41.5390   14.8550    1.1240 C.3    60  LEU60       0.0001
     63  N         42.0280   20.1740    6.0890 N.3    62  ARG62      -0.1245
     64  CA        41.9040   21.4760    5.4450 C.3    62  ARG62       0.1563
     65  C         42.4690   22.5770    6.3360 C.2    62  ARG62       0.2260
     66  O         41.9500   22.8400    7.4290 O.2    62  ARG62      -0.2867
     67  CB        40.4770   21.7010    5.0200 C.3    62  ARG62       0.0307
     68  CG        39.9740   20.5740    4.1220 C.3    62  ARG62       0.0489
     69  CD        38.4870   20.7040    3.7890 C.3    62  ARG62       0.2205
     70  NE        38.1590   21.9750    3.1370 N.pl3  62  ARG62      -0.0865
     71  CZ        36.9550   22.2990    2.5790 C.cat  62  ARG62       0.5346
     72  NH1       35.9150   21.4630    2.5750 N.pl3  62  ARG62       0.1354
     73  NH2       36.8040   23.5060    2.0240 N.pl3  62  ARG62       0.1354
     74  N         33.1960   27.8300    7.3750 N.3    68  ARG68      -0.1231
     75  CA        32.9670   26.4430    7.6150 C.3    68  ARG68       0.1694
     76  C         32.7030   25.6270    6.3420 C.2    68  ARG68       0.2593
     77  O         33.2440   24.5270    6.1720 O.2    68  ARG68      -0.2718
     78  CB        31.8250   26.2280    8.6180 C.3    68  ARG68       0.0321
     79  CG        31.5590   24.7450    8.9140 C.3    68  ARG68       0.0489
     80  CD        30.3900   24.5240    9.8690 C.3    68  ARG68       0.2205
     81  NE        29.1810   25.1580    9.3680 N.pl3  68  ARG68      -0.0865
     82  CZ        28.2440   24.5230    8.6670 C.cat  68  ARG68       0.5346
     83  NH1       28.3600   23.2060    8.4000 N.pl3  68  ARG68       0.1354
     84  NH2       27.1610   25.2220    8.2300 N.pl3  68  ARG68       0.1354
     85  N         31.8560   26.1630    5.4600 N.am   69  THR69      -0.1939
     86  CA        31.4590   25.4700    4.2430 C.3    69  THR69       0.2028
     87  C         32.1170   25.8690    2.9420 C.2    69  THR69       0.2642
     88  O         32.2160   25.0500    2.0590 O.2    69  THR69      -0.2714
     89  CB        29.9400   25.5520    4.0650 C.3    69  THR69       0.1808
     90  OG1       29.5630   26.9210    4.0220 O.3    69  THR69      -0.2208
     91  CG2       29.2300   24.8510    5.2240 C.3    69  THR69       0.0379
     92  N         32.5250   27.1140    2.7760 N.am   70  ARG70      -0.1963
     93  CA        33.1370   27.5300    1.5250 C.3    70  ARG70       0.1729
     94  C         34.4190   26.8250    1.1910 C.2    70  ARG70       0.2616
     95  O         35.1220   26.2990    2.0650 O.2    70  ARG70      -0.2715
     96  CB        33.4580   29.0030    1.5460 C.3    70  ARG70       0.0348
     97  CG        32.2410   29.8530    1.5130 C.3    70  ARG70       0.0492
     98  CD        32.5770   31.3020    1.6500 C.3    70  ARG70       0.2205
     99  NE        31.3570   32.0690    1.7400 N.pl3  70  ARG70      -0.0865
    100  CZ        31.3760   33.3730    1.8250 C.cat  70  ARG70       0.5346
    101  NH1       32.5410   34.0020    1.8370 N.pl3  70  ARG70       0.1354
    102  NH2       30.2230   34.0740    1.9000 N.pl3  70  ARG70       0.1354
    103  N         34.7230   26.8430   -0.1050 N.am   71  TYR71      -0.1974
    104  CA        35.9470   26.2970   -0.6110 C.3    71  TYR71       0.1639
    105  C         36.7320   27.5370   -0.8780 C.2    71  TYR71       0.2290
    106  O         36.4290   28.2440   -1.8210 O.2    71  TYR71      -0.2864
    107  CB        35.7800   25.5450   -1.9020 C.3    71  TYR71       0.0560
    108  CG        37.1070   25.2650   -2.5440 C.ar   71  TYR71      -0.0198
    109  CD1       38.2130   24.8910   -1.7640 C.ar   71  TYR71      -0.0009
    110  CD2       37.2670   25.3530   -3.9170 C.ar   71  TYR71      -0.0009
    111  CE1       39.4510   24.6090   -2.3300 C.ar   71  TYR71       0.0417
    112  CE2       38.4990   25.0820   -4.5100 C.ar   71  TYR71       0.0417
    113  CZ        39.5780   24.7100   -3.7170 C.ar   71  TYR71       0.1957
    114  OH        40.7770   24.4430   -4.3150 O.3    71  TYR71      -0.2866
    115  N         44.3130   21.8900    0.9600 N.3    78  ILE78      -0.1245
    116  CA        43.8070   20.5500    1.2100 C.3    78  ILE78       0.1561
    117  C         44.8610   19.4710    1.1090 C.2    78  ILE78       0.2260
    118  O         45.4740   19.3300    0.0760 O.2    78  ILE78      -0.2867
    119  CB        42.6900   20.2860    0.2510 C.3    78  ILE78       0.0252
    120  CG1       41.7200   21.4600    0.3500 C.3    78  ILE78       0.0019
    121  CG2       42.0080   18.9750    0.6360 C.3    78  ILE78       0.0019
    122  CD1       40.5170   21.3320   -0.5650 C.3    78  ILE78       0.0001
    123  N         46.2660   15.2710    2.1000 N.3    80  MET80      -0.1245
    124  CA        45.9000   13.8980    2.3490 C.3    80  MET80       0.1570
    125  C         46.8040   13.2900    3.4180 C.2    80  MET80       0.2261
    126  O         47.9570   13.6370    3.5220 O.2    80  MET80      -0.2867
    127  CB        45.9650   13.0860    1.0460 C.3    80  MET80       0.0387
    128  CG        45.3740   13.8370   -0.1430 C.3    80  MET80       0.0595
    129  SD        45.3040   12.8680   -1.6850 S.3    80  MET80      -0.1393
    130  CE        43.8390   11.8470   -1.4130 C.3    80  MET80       0.0692
    131  N         20.2820   27.2450   12.0950 N.3   154  LYS154     -0.1245
    132  CA        21.3860   26.3240   11.7920 C.3   154  LYS154      0.1561
    133  C         22.3530   26.2480   12.9730 C.2   154  LYS154      0.2260
    134  O         23.0570   27.1970   13.2960 O.2   154  LYS154     -0.2867
    135  CB        22.0750   26.6460   10.4640 C.3   154  LYS154      0.0271
    136  CG        23.3340   25.8200   10.2410 C.3   154  LYS154      0.0035
    137  CD        24.0820   26.3180    9.0100 C.3   154  LYS154      0.0206
    138  CE        23.9880   27.8320    8.8930 C.3   154  LYS154      0.1093
    139  NZ        24.8590   28.3680    7.8090 N.3   154  LYS154     -0.1314
    140  N         25.0890   25.1980   13.3010 N.3   156  GLN156     -0.1245
    141  CA        26.4890   25.4390   13.0750 C.3   156  GLN156      0.1566
    142  C         26.7840   26.7910   12.5190 C.2   156  GLN156      0.2260
    143  O         26.0380   27.2910   11.6920 O.2   156  GLN156     -0.2867
    144  CB        27.1710   24.3780   12.2290 C.3   156  GLN156      0.0367
    145  CG        26.9860   22.9190   12.7130 C.3   156  GLN156      0.0905
    146  CD        25.6940   22.3130   12.1930 C.2   156  GLN156      0.2608
    147  OE1       25.0590   22.8660   11.2670 O.2   156  GLN156     -0.2717
    148  NE2       25.3020   21.1660   12.7700 N.am  156  GLN156     -0.0878
@<TRIPOS>BOND
     1   112   110   ar
     2   112   113   ar
     3   114   113    1
     4   110   108   ar
     5   113   111   ar
     6   108   107    1
     7   108   109   ar
     8   111   109   ar
     9   107   104    1
    10   106   105    2
    11   129   130    1
    12   129   128    1
    13    36    35    2
    14   105   104    1
    15    37    35   am
    16   104   103    1
    17   122   120    1
    18    35    34    1
    19   128   127    1
    20   103    94   am
    21    28    27    1
    22   118   117    2
    23    27    26    1
    24   119   120    1
    25   119   121    1
    26   119   116    1
    27    34    33    1
    28    23    22    2
    29    26    25    1
    30   115   116    1
    31   127   124    1
    32    61    60    1
    33   117   116    1
    34    62    60    1
    35    25    24    1
    36    94    93    1
    37    94    95    2
    38    24    21    1
    39    97    96    1
    40    97    98    1
    41    93    96    1
    42    93    92    1
    43    22    21    1
    44    98    99    1
    45    99   100    2
    46    33    30    1
    47   100   101    1
    48   100   102    1
    49    60    59    1
    50    73    71    1
    51    21    20    1
    52    88    87    2
    53   123   124    1
    54   124   125    1
    55    18    19   ar
    56    18    16   ar
    57    29    30    1
    58    72    71    1
    59    71    70    2
    60    92    87   am
    61    30    31    1
    62    19    17   ar
    63    87    86    1
    64    70    69    1
    65    59    56    1
    66    16    14   ar
    67   125   126    2
    68    69    68    1
    69    90    89    1
    70    89    86    1
    71    89    91    1
    72    68    67    1
    73    31    32    2
    74    31    38   am
    75    17    15   ar
    76    86    85    1
    77    56    55    1
    78    56    57    1
    79    14    15   ar
    80    14    13    1
    81    67    64    1
    82    38    39    1
    83    13    10    1
    84    64    63    1
    85    64    65    1
    86    57    58    2
    87    85    76   am
    88    12    11    2
    89    77    76    2
    90    11    10    1
    91    65    66    2
    92    76    75    1
    93    39    42    1
    94    39    40    1
    95    10     9    1
    96    42    43    1
    97    41    40    2
    98    40    47   am
    99    74    75    1
   100     7     8    1
   101     7     6    1
   102    43    44    1
   103    75    78    1
   104   139   138    1
   105    84    82    1
   106    47    48    1
   107    44    46   ar
   108    44    45   ar
   109    83    82    1
   110     4     3    2
   111    78    79    1
   112    82    81    2
   113     6     5    1
   114   138   137    1
   115    79    80    1
   116     5     2    1
   117   137   136    1
   118    48    51    1
   119    48    49    1
   120    81    80    1
   121     3     2    1
   122    51    52    1
   123     2     1    1
   124   136   135    1
   125    53    52    1
   126    49    50    2
   127   135   132    1
   128    52    54    1
   129   147   146    2
   130   143   142    2
   131   132   131    1
   132   132   133    1
   133   146   145    1
   134   146   148   am
   135   144   145    1
   136   144   141    1
   137   142   141    1
   138   133   134    2
   139   141   140    1
