@<TRIPOS>MOLECULE
tmp/1dwfA06.pdb
 83 83 0 0 0
SMALL
GASTEIGER

@<TRIPOS>ATOM
      1  N         34.1260  118.4550   33.3720 N.3   261  PRO261     -0.2102
      2  CA        34.7190  118.3740   32.0540 C.3   261  PRO261      0.1504
      3  C         35.2080  119.7350   31.6000 C.2   261  PRO261      0.2576
      4  O         34.5060  120.7280   31.6540 O.2   261  PRO261     -0.2718
      5  CB        33.5700  117.8890   31.1480 C.3   261  PRO261      0.0282
      6  CG        32.5160  117.4860   32.0570 C.3   261  PRO261      0.0208
      7  CD        32.7040  118.1490   33.3540 C.3   261  PRO261      0.0893
      8  N         36.4430  119.7470   31.0430 N.am  262  TYR262     -0.1963
      9  CA        36.9580  120.9100   30.3590 C.3   262  TYR262      0.1771
     10  C         36.0520  121.3680   29.2490 C.2   262  TYR262      0.2620
     11  O         35.8920  122.5640   28.9990 O.2   262  TYR262     -0.2715
     12  CB        38.3390  120.5100   29.8070 C.3   262  TYR262      0.0574
     13  CG        39.0400  121.5350   28.9240 C.ar  262  TYR262     -0.0198
     14  CD1       39.6340  122.6430   29.4950 C.ar  262  TYR262     -0.0009
     15  CD2       39.1200  121.3380   27.5630 C.ar  262  TYR262     -0.0009
     16  CE1       40.3250  123.5750   28.6620 C.ar  262  TYR262      0.0417
     17  CE2       39.8210  122.2470   26.7660 C.ar  262  TYR262      0.0417
     18  CZ        40.3450  123.2860   27.6030 C.ar  262  TYR262      0.1957
     19  OH        41.0830  124.2780   26.4110 O.3   262  TYR262     -0.2866
     20  N         35.4030  120.4040   28.5960 N.am  263  ASN263     -0.1958
     21  CA        34.3940  120.6960   27.5930 C.3   263  ASN263      0.1819
     22  C         33.2250  119.7540   27.8300 C.2   263  ASN263      0.2621
     23  O         33.3360  118.5520   27.5990 O.2   263  ASN263     -0.2715
     24  CB        34.9650  120.5580   26.2190 C.3   263  ASN263      0.1195
     25  CG        33.9220  120.8550   25.2020 C.2   263  ASN263      0.2630
     26  OD1       32.7420  120.7760   25.3400 O.2   263  ASN263     -0.2716
     27  ND2       34.4780  121.2530   24.0290 N.am  263  ASN263     -0.0877
     28  N         32.1210  120.3340   28.3480 N.am  264  ASP264     -0.1957
     29  CA        31.0010  119.4970   28.8270 C.3   264  ASP264      0.1840
     30  C         30.1210  118.9960   27.7430 C.2   264  ASP264      0.2622
     31  O         29.1570  118.2590   28.0630 O.2   264  ASP264     -0.2715
     32  CB        30.2480  120.1180   29.9530 C.3   264  ASP264      0.1450
     33  CG        29.5000  121.3150   29.5480 C.2   264  ASP264      0.3671
     34  OD1       29.3920  121.6300   28.3510 O.co2 264  ASP264     -0.2456
     35  OD2       28.9730  121.8880   30.5570 O.co2 264  ASP264     -0.2456
     36  N         30.4530  119.2390   26.4710 N.am  265  THR265     -0.1951
     37  CA        29.7580  118.5820   25.3730 C.3   265  THR265      0.1897
     38  C         30.6840  117.6880   24.5970 C.2   265  THR265      0.2313
     39  O         30.2840  117.2390   23.5400 O.2   265  THR265     -0.2863
     40  CB        29.0160  119.5600   24.5020 C.3   265  THR265      0.1794
     41  OG1       29.9510  120.3390   23.7870 O.3   265  THR265     -0.2208
     42  CG2       27.9930  120.3290   25.2560 C.3   265  THR265      0.0378
     43  N         39.0460  121.1480   36.0550 N.3   332  TYR332     -0.1241
     44  CA        38.5280  120.6840   34.7830 C.3   332  TYR332      0.1605
     45  C         39.4560  119.6080   34.2270 C.2   332  TYR332      0.2264
     46  O         40.6900  119.7330   34.3610 O.2   332  TYR332     -0.2867
     47  CB        38.4640  121.8310   33.7860 C.3   332  TYR332      0.0534
     48  CG        37.4270  122.8710   34.0870 C.ar  332  TYR332     -0.0201
     49  CD1       36.0800  122.5780   34.0780 C.ar  332  TYR332     -0.0009
     50  CD2       37.7840  124.1840   34.3720 C.ar  332  TYR332     -0.0009
     51  CE1       35.1300  123.4980   34.3620 C.ar  332  TYR332      0.0417
     52  CE2       36.8330  125.1450   34.6410 C.ar  332  TYR332      0.0417
     53  CZ        35.5140  124.8060   34.6360 C.ar  332  TYR332      0.1957
     54  OH        34.5870  125.7930   34.9470 O.3   332  TYR332     -0.2866
     55  N         38.1200  126.4000   31.5520 N.3   359  ASN359     -0.1225
     56  CA        37.4970  125.4170   30.6510 C.3   359  ASN359      0.1785
     57  C         37.7220  125.8310   29.2050 C.2   359  ASN359      0.2597
     58  O         38.3540  126.8300   28.8920 O.2   359  ASN359     -0.2718
     59  CB        36.0910  125.0790   31.0320 C.3   359  ASN359      0.1169
     60  CG        35.1170  126.1210   30.6170 C.2   359  ASN359      0.2627
     61  OD1       35.3980  127.1720   30.0430 O.2   359  ASN359     -0.2716
     62  ND2       33.8280  125.7950   30.9080 N.am  359  ASN359     -0.0877
     63  N         37.1400  125.0700   28.2820 N.am  360  ALA360     -0.1966
     64  CA        37.4560  125.2330   26.8730 C.3   360  ALA360      0.1728
     65  C         36.9500  126.5540   26.3370 C.2   360  ALA360      0.2616
     66  O         37.4610  127.0150   25.3090 O.2   360  ALA360     -0.2715
     67  CB        36.8550  124.1020   26.0690 C.3   360  ALA360      0.0334
     68  N         35.9370  127.1330   26.9420 N.am  361  SER361     -0.1950
     69  CA        35.3930  128.4260   26.4870 C.3   361  SER361      0.1924
     70  C         36.0190  129.5550   27.2560 C.2   361  SER361      0.2314
     71  O         35.5750  130.6950   27.1080 O.2   361  SER361     -0.2863
     72  CB        33.9100  128.4160   26.2750 C.3   361  SER361      0.2116
     73  OG        33.3760  128.0170   27.5160 O.3   361  SER361     -0.2180
     74  N         36.3350  129.9530   30.6630 N.3   363  HIS363     -0.1241
     75  CA        35.7770  130.2680   31.9610 C.3   363  HIS363      0.1621
     76  C         36.7110  129.7800   33.0460 C.2   363  HIS363      0.2264
     77  O         37.0280  128.5730   33.1010 O.2   363  HIS363     -0.2867
     78  CB        34.4440  129.5820   32.1050 C.3   363  HIS363      0.0745
     79  CG        33.8150  129.7200   33.4110 C.ar  363  HIS363      0.0817
     80  ND1       33.6440  128.8130   34.4380 N.ar  363  HIS363     -0.2268
     81  CD2       33.2810  130.8780   33.9130 C.ar  363  HIS363      0.1154
     82  CE1       32.9950  129.3640   35.4600 C.ar  363  HIS363      0.1986
     83  NE2       32.7780  130.6320   35.1170 N.ar  363  HIS363     -0.2212
@<TRIPOS>BOND
     1    39    38    2
     2    41    40    1
     3    27    25   am
     4    40    42    1
     5    40    37    1
     6    38    37    1
     7    25    26    2
     8    25    24    1
     9    66    65    2
    10    37    36    1
    11    67    64    1
    12    24    21    1
    13    72    69    1
    14    72    73    1
    15    65    64    1
    16    65    68   am
    17    19    18    1
    18    36    30   am
    19    69    68    1
    20    69    70    1
    21    17    15   ar
    22    17    18   ar
    23    64    63    1
    24    71    70    2
    25    15    13   ar
    26    21    22    1
    27    21    20    1
    28    23    22    2
    29    18    16   ar
    30    30    31    2
    31    30    29    1
    32    22    28   am
    33    63    57   am
    34    28    29    1
    35    34    33   ar
    36    20    10   am
    37    16    14   ar
    38    29    32    1
    39    58    57    2
    40    13    14   ar
    41    13    12    1
    42    11    10    2
    43    57    56    1
    44    10     9    1
    45    33    32    1
    46    33    35   ar
    47    12     9    1
    48    61    60    2
    49     9     8    1
    50    60    62   am
    51    60    59    1
    52    56    59    1
    53    56    55    1
    54    74    75    1
    55     8     3   am
    56     5     2    1
    57     5     6    1
    58     3     4    2
    59     3     2    1
    60    75    78    1
    61    75    76    1
    62     2     1    1
    63     6     7    1
    64    78    79    1
    65    76    77    2
    66     7     1    1
    67    79    81   ar
    68    79    80   ar
    69    47    48    1
    70    47    44    1
    71    81    83   ar
    72    49    48   ar
    73    49    51   ar
    74    48    50   ar
    75    45    46    2
    76    45    44    1
    77    51    53   ar
    78    50    52   ar
    79    80    82   ar
    80    53    52   ar
    81    53    54    1
    82    44    43    1
    83    83    82   ar
