@<TRIPOS>MOLECULE
tmp/1dwvB02.pdb
 151 150 0 0 0
SMALL
GASTEIGER

@<TRIPOS>ATOM
      1  N        133.3100  111.6450   96.6160 N.3   118  CYS118     -0.1235
      2  CA       132.0160  112.2010   97.0110 C.3   118  CYS118      0.1677
      3  C        132.1050  112.9770   98.3150 C.2   118  CYS118      0.2270
      4  O        132.5380  112.4410   99.3320 O.2   118  CYS118     -0.2867
      5  CB       130.9690  111.0860   97.1500 C.3   118  CYS118      0.0956
      6  SG       129.2950  111.6330   97.6580 S.3   118  CYS118     -0.0801
      7  N        125.2090  110.9210   82.4560 N.3   181  GLN181     -0.1245
      8  CA       124.2490  111.0230   83.5400 C.3   181  GLN181      0.1566
      9  C        122.8290  110.9620   82.9760 C.2   181  GLN181      0.2260
     10  O        122.6140  111.1650   81.7790 O.2   181  GLN181     -0.2867
     11  CB       124.4950  112.2630   84.4280 C.3   181  GLN181      0.0367
     12  CG       125.0630  113.4710   83.7380 C.3   181  GLN181      0.0905
     13  CD       125.4660  114.5960   84.6970 C.2   181  GLN181      0.2608
     14  OE1      124.6510  115.1140   85.4540 O.2   181  GLN181     -0.2717
     15  NE2      126.7220  115.0040   84.6240 N.am  181  GLN181     -0.0878
     16  N        119.1950  124.9400   84.6040 N.3   264  TRP264     -0.1227
     17  CA       119.8890  123.6820   84.7840 C.3   264  TRP264      0.1737
     18  C        118.9310  122.6710   85.3820 C.2   264  TRP264      0.2595
     19  O        117.9210  123.0480   85.9950 O.2   264  TRP264     -0.2718
     20  CB       121.1240  123.8460   85.6960 C.3   264  TRP264      0.0564
     21  CG       122.1520  122.7620   85.4490 C.ar  264  TRP264      0.0003
     22  CD1      122.3250  121.6060   86.1610 C.ar  264  TRP264      0.0946
     23  CD2      123.0690  122.7040   84.3560 C.ar  264  TRP264      0.0152
     24  NE1      123.2960  120.8270   85.5640 N.ar  264  TRP264     -0.2442
     25  CE2      123.7650  121.4790   84.4560 C.ar  264  TRP264      0.0810
     26  CE3      123.3680  123.5710   83.2940 C.ar  264  TRP264      0.0012
     27  CZ2      124.7410  121.0970   83.5390 C.ar  264  TRP264      0.0191
     28  CZ3      124.3420  123.1920   82.3800 C.ar  264  TRP264      0.0001
     29  CH2      125.0190  121.9600   82.5110 C.ar  264  TRP264      0.0015
     30  N        119.2210  121.3910   85.1520 N.am  265  TYR265     -0.1976
     31  CA       118.4060  120.3240   85.7080 C.3   265  TYR265      0.1639
     32  C        118.6920  120.1790   87.1970 C.2   265  TYR265      0.2290
     33  O        119.8260  120.3810   87.6430 O.2   265  TYR265     -0.2864
     34  CB       118.6450  118.9980   84.9740 C.3   265  TYR265      0.0560
     35  CG       120.0910  118.6680   84.6230 C.ar  265  TYR265     -0.0198
     36  CD1      120.6980  119.2050   83.4850 C.ar  265  TYR265     -0.0009
     37  CD2      120.8340  117.7800   85.4000 C.ar  265  TYR265     -0.0009
     38  CE1      121.9910  118.8580   83.1300 C.ar  265  TYR265      0.0417
     39  CE2      122.1440  117.4310   85.0510 C.ar  265  TYR265      0.0417
     40  CZ       122.7090  117.9740   83.9150 C.ar  265  TYR265      0.1957
     41  OH       123.9930  117.6200   83.5550 O.3   265  TYR265     -0.2866
     42  N        121.1520  115.4940   89.6430 N.3   268  PRO268     -0.2116
     43  CA       122.5070  115.0630   89.2960 C.3   268  PRO268      0.1372
     44  C        122.4920  113.5390   89.3940 C.2   268  PRO268      0.2244
     45  O        122.4620  112.9680   90.4790 O.2   268  PRO268     -0.2868
     46  CB       123.3550  115.7130   90.3890 C.3   268  PRO268      0.0268
     47  CG       122.4720  115.7010   91.5800 C.3   268  PRO268      0.0207
     48  CD       121.0910  116.0150   91.0250 C.3   268  PRO268      0.0892
     49  N        124.5160  110.2990   88.1040 N.3   270  VAL270     -0.1245
     50  CA       125.5920  109.6010   87.4050 C.3   270  VAL270      0.1561
     51  C        125.0110  108.3210   86.8350 C.2   270  VAL270      0.2260
     52  O        124.3510  107.5550   87.5490 O.2   270  VAL270     -0.2867
     53  CB       126.7500  109.3020   88.3530 C.3   270  VAL270      0.0252
     54  CG1      127.7810  108.4170   87.6860 C.3   270  VAL270      0.0019
     55  CG2      127.3670  110.6130   88.8010 C.3   270  VAL270      0.0019
     56  N        122.8040  106.3840   89.7990 N.3   287  PHE287     -0.1227
     57  CA       122.4800  106.8570   91.1410 C.3   287  PHE287      0.1736
     58  C        122.4610  108.3840   91.1910 C.2   287  PHE287      0.2595
     59  O        122.9750  109.0590   90.2850 O.2   287  PHE287     -0.2718
     60  CB       123.5110  106.3210   92.1490 C.3   287  PHE287      0.0547
     61  CG       124.9450  106.6470   91.7910 C.ar  287  PHE287     -0.0202
     62  CD1      125.4650  107.9170   92.0100 C.ar  287  PHE287     -0.0042
     63  CD2      125.7750  105.6710   91.2600 C.ar  287  PHE287     -0.0042
     64  CE1      126.7940  108.2100   91.7030 C.ar  287  PHE287     -0.0003
     65  CE2      127.1070  105.9440   90.9490 C.ar  287  PHE287     -0.0003
     66  CZ       127.6200  107.2130   91.1700 C.ar  287  PHE287     -0.0000
     67  N        121.9120  108.9200   92.2730 N.am  288  ASN288     -0.1960
     68  CA       121.8760  110.3610   92.4470 C.3   288  ASN288      0.1819
     69  C        121.7300  110.7600   93.9030 C.2   288  ASN288      0.2622
     70  O        121.2060  110.0150   94.7340 O.2   288  ASN288     -0.2715
     71  CB       120.6820  110.9530   91.7000 C.3   288  ASN288      0.1195
     72  CG       119.3820  110.6870   92.4110 C.2   288  ASN288      0.2630
     73  OD1      118.7930  109.6280   92.2640 O.2   288  ASN288     -0.2716
     74  ND2      118.9640  111.6240   93.2470 N.am  288  ASN288     -0.0877
     75  N        122.1500  111.9820   94.1720 N.am  289  GLY289     -0.1940
     76  CA       122.0000  112.5750   95.4820 C.3   289  GLY289      0.2014
     77  C        121.4660  113.9260   95.0480 C.2   289  GLY289      0.2639
     78  O        120.6450  113.9770   94.1180 O.2   289  GLY289     -0.2714
     79  N        121.9090  115.0110   95.6780 N.am  290  TRP290     -0.1959
     80  CA       121.4740  116.3320   95.2530 C.3   290  TRP290      0.1771
     81  C        122.6940  117.1560   94.8920 C.2   290  TRP290      0.2620
     82  O        123.8150  116.7350   95.1180 O.2   290  TRP290     -0.2715
     83  CB       120.5930  117.0290   96.2910 C.3   290  TRP290      0.0590
     84  CG       121.1280  117.0180   97.6720 C.ar  290  TRP290      0.0006
     85  CD1      122.0840  117.8430   98.1920 C.ar  290  TRP290      0.0946
     86  CD2      120.7210  116.1530   98.7290 C.ar  290  TRP290      0.0152
     87  NE1      122.2980  117.5470   99.5130 N.ar  290  TRP290     -0.2442
     88  CE2      121.4750  116.5100   99.8720 C.ar  290  TRP290      0.0810
     89  CE3      119.7900  115.1060   98.8240 C.ar  290  TRP290      0.0012
     90  CZ2      121.3300  115.8570  101.1040 C.ar  290  TRP290      0.0191
     91  CZ3      119.6430  114.4530  100.0480 C.ar  290  TRP290      0.0001
     92  CH2      120.4140  114.8340  101.1750 C.ar  290  TRP290      0.0015
     93  N        122.4660  118.3240   94.3120 N.am  291  TYR291     -0.1960
     94  CA       123.5360  119.2060   93.8670 C.3   291  TYR291      0.1771
     95  C        124.2540  120.0420   94.9250 C.2   291  TYR291      0.2619
     96  O        123.7210  120.3370   96.0000 O.2   291  TYR291     -0.2715
     97  CB       122.9890  120.1640   92.7980 C.3   291  TYR291      0.0574
     98  CG       123.1860  119.7160   91.3690 C.ar  291  TYR291     -0.0198
     99  CD1      124.4610  119.6510   90.8230 C.ar  291  TYR291     -0.0009
    100  CD2      122.0930  119.4050   90.5480 C.ar  291  TYR291     -0.0009
    101  CE1      124.6600  119.3070   89.5000 C.ar  291  TYR291      0.0417
    102  CE2      122.2800  119.0500   89.2080 C.ar  291  TYR291      0.0417
    103  CZ       123.5680  119.0050   88.6920 C.ar  291  TYR291      0.1957
    104  OH       123.7930  118.6880   87.3690 O.3   291  TYR291     -0.2866
    105  N        125.4950  120.3860   94.6060 N.am  292  MET292     -0.1977
    106  CA       126.2970  121.2530   95.4470 C.3   292  MET292      0.1605
    107  C        126.5420  122.3960   94.4830 C.2   292  MET292      0.2287
    108  O        127.1120  122.2040   93.3950 O.2   292  MET292     -0.2864
    109  CB       127.6160  120.6070   95.8910 C.3   292  MET292      0.0413
    110  CG       128.5020  121.5760   96.6930 C.3   292  MET292      0.0598
    111  SD       129.9550  120.8180   97.4800 S.3   292  MET292     -0.1393
    112  CE       131.1130  120.8130   96.0720 C.3   292  MET292      0.0692
    113  N        128.9020  122.8890   91.4770 N.3   295  GLU295     -0.1245
    114  CA       128.8930  121.9850   90.3260 C.3   295  GLU295      0.1567
    115  C        128.2870  122.7030   89.1150 C.2   295  GLU295      0.2260
    116  O        128.8360  122.6820   88.0190 O.2   295  GLU295     -0.2867
    117  CB       128.0930  120.7180   90.6370 C.3   295  GLU295      0.0388
    118  CG       128.6190  119.9160   91.8300 C.3   295  GLU295      0.1160
    119  CD       127.8640  118.6160   92.0370 C.2   295  GLU295      0.3649
    120  OE1      128.2220  117.6340   91.3620 O.co2 295  GLU295     -0.2457
    121  OE2      126.9230  118.5720   92.8710 O.co2 295  GLU295     -0.2457
    122  N        131.5660  124.8210   87.6250 N.3   299  ARG299     -0.1231
    123  CA       132.0050  123.9310   86.5450 C.3   299  ARG299      0.1694
    124  C        131.1220  124.0140   85.3000 C.2   299  ARG299      0.2592
    125  O        131.5630  124.4760   84.2420 O.2   299  ARG299     -0.2718
    126  CB       132.0740  122.4770   87.0370 C.3   299  ARG299      0.0321
    127  CG       132.8340  122.2810   88.3630 C.3   299  ARG299      0.0489
    128  CD       134.2520  122.8230   88.3240 C.3   299  ARG299      0.2205
    129  NE       135.0040  122.3390   87.1750 N.pl3 299  ARG299     -0.0865
    130  CZ       135.4300  121.0890   87.0260 C.cat 299  ARG299      0.5346
    131  NH1      135.1880  120.1710   87.9640 N.pl3 299  ARG299      0.1354
    132  NH2      136.1120  120.7590   85.9420 N.pl3 299  ARG299      0.1354
    133  N        129.8730  123.5840   85.4360 N.am  300  ASP300     -0.1974
    134  CA       128.9260  123.5910   84.3200 C.3   300  ASP300      0.1709
    135  C        128.8740  124.9260   83.5690 C.2   300  ASP300      0.2293
    136  O        129.1130  124.9670   82.3570 O.2   300  ASP300     -0.2864
    137  CB       127.5410  123.1730   84.8140 C.3   300  ASP300      0.1436
    138  CG       127.5500  121.7980   85.4700 C.2   300  ASP300      0.3671
    139  OD1      128.4710  120.9910   85.1690 O.co2 300  ASP300     -0.2456
    140  OD2      126.6460  121.5330   86.2990 O.co2 300  ASP300     -0.2456
    141  N        132.9540  123.9250   78.9670 N.3   306  ARG306     -0.1245
    142  CA       131.5240  123.7290   79.1290 C.3   306  ARG306      0.1563
    143  C        130.7690  124.9450   78.5770 C.2   306  ARG306      0.2260
    144  O        131.0410  125.3830   77.4510 O.2   306  ARG306     -0.2867
    145  CB       131.1650  123.4600   80.5950 C.3   306  ARG306      0.0307
    146  CG       131.9090  122.2790   81.2390 C.3   306  ARG306      0.0489
    147  CD       131.5240  120.9040   80.6700 C.3   306  ARG306      0.2205
    148  NE       130.1280  120.5600   80.9330 N.pl3 306  ARG306     -0.0865
    149  CZ       129.5980  120.3420   82.1350 C.cat 306  ARG306      0.5346
    150  NH1      130.3400  120.4150   83.2370 N.pl3 306  ARG306      0.1354
    151  NH2      128.2990  120.1060   82.2360 N.pl3 306  ARG306      0.1354
@<TRIPOS>BOND
     1   144   143    2
     2   143   142    1
     3   141   142    1
     4   142   145    1
     5   145   146    1
     6   147   148    1
     7   147   146    1
     8   148   149    2
     9    10     9    2
    10   149   151    1
    11   149   150    1
    12   136   135    2
    13    28    29   ar
    14    28    26   ar
    15     7     8    1
    16    29    27   ar
    17     9     8    1
    18    38    36   ar
    19    38    40   ar
    20    26    23   ar
    21    36    35   ar
    22    27    25   ar
    23     8    11    1
    24    41    40    1
    25   135   134    1
    26    12    11    1
    27    12    13    1
    28    40    39   ar
    29   125   124    2
    30   134   137    1
    31   134   133    1
    32    23    25   ar
    33    23    21   ar
    34    25    24   ar
    35    16    17    1
    36    35    34    1
    37    35    37   ar
    38    15    13   am
    39    13    14    2
    40    17    18    1
    41    17    20    1
    42   137   138    1
    43    34    31    1
    44    39    37   ar
    45    30    18   am
    46    30    31    1
    47   139   138   ar
    48   124   133   am
    49   124   123    1
    50    18    19    2
    51    21    20    1
    52    21    22   ar
    53   138   140   ar
    54    24    22   ar
    55    31    32    1
    56   132   130    1
    57   123   126    1
    58   123   122    1
    59    51    50    1
    60    51    52    2
    61   130   129    2
    62   130   131    1
    63   126   127    1
    64   129   128    1
    65    32    33    2
    66   104   103    1
    67    50    49    1
    68    50    53    1
    69    54    53    1
    70   116   115    2
    71   128   127    1
    72    53    55    1
    73   103   102   ar
    74   103   101   ar
    75   115   114    1
    76   102   100   ar
    77    43    44    1
    78    43    42    1
    79    43    46    1
    80    44    45    2
    81   101    99   ar
    82    42    48    1
    83    56    57    1
    84    59    58    2
    85   114   117    1
    86   114   113    1
    87    46    47    1
    88   100    98   ar
    89   117   118    1
    90    99    98   ar
    91    65    66   ar
    92    65    63   ar
    93    48    47    1
    94    57    58    1
    95    57    60    1
    96    66    64   ar
    97    58    67   am
    98    63    61   ar
    99   120   119   ar
   100    98    97    1
   101    71    72    1
   102    71    68    1
   103    64    62   ar
   104    61    62   ar
   105    61    60    1
   106   118   119    1
   107   119   121   ar
   108    73    72    2
   109    67    68    1
   110    72    74   am
   111    68    69    1
   112    97    94    1
   113   108   107    2
   114    94    93    1
   115    94    95    1
   116    69    75   am
   117    69    70    2
   118    78    77    2
   119    75    76    1
   120    93    81   am
   121   107   106    1
   122   105    95   am
   123   105   106    1
   124    81    82    2
   125    81    80    1
   126    95    96    2
   127    77    76    1
   128    77    79   am
   129    80    79    1
   130    80    83    1
   131   106   109    1
   132   109   110    1
   133   112   111    1
   134    83    84    1
   135     1     2    1
   136   110   111    1
   137     2     5    1
   138     2     3    1
   139     5     6    1
   140    84    85   ar
   141    84    86   ar
   142    85    87   ar
   143     3     4    2
   144    86    89   ar
   145    86    88   ar
   146    89    91   ar
   147    87    88   ar
   148    88    90   ar
   149    91    92   ar
   150    90    92   ar
