@<TRIPOS>MOLECULE
tmp/1dx4A00.pdb
 100 91 0 0 0
SMALL
GASTEIGER

@<TRIPOS>ATOM
      1  N         30.4990   49.4030  -13.2920 N.3    15  ARG15      -0.1245
      2  CA        31.7480   48.6830  -13.4480 C.3    15  ARG15       0.1563
      3  C         31.8360   47.5860  -12.3980 C.2    15  ARG15       0.2260
      4  O         31.1300   47.6250  -11.3920 O.2    15  ARG15      -0.2867
      5  CB        32.9290   49.6430  -13.3240 C.3    15  ARG15       0.0307
      6  CG        32.8530   50.5690  -12.1460 C.3    15  ARG15       0.0489
      7  CD        34.1040   51.4230  -12.0650 C.3    15  ARG15       0.2205
      8  NE        33.9190   52.5570  -11.1670 N.pl3  15  ARG15      -0.0865
      9  CZ        33.6320   52.4510   -9.8730 C.cat  15  ARG15       0.5346
     10  NH1       33.5060   51.2540   -9.3170 N.pl3  15  ARG15       0.1354
     11  NH2       33.4470   53.5430   -9.1390 N.pl3  15  ARG15       0.1354
     12  N         36.7560   42.9970   -4.1590 N.3    19  VAL19      -0.1245
     13  CA        37.3080   43.3460   -2.8560 C.3    19  VAL19       0.1561
     14  C         37.0530   42.1740   -1.9280 C.2    19  VAL19       0.2260
     15  O         36.0220   41.5040   -2.0330 O.2    19  VAL19      -0.2867
     16  CB        36.6450   44.6240   -2.2750 C.3    19  VAL19       0.0252
     17  CG1       36.8280   45.7830   -3.2450 C.3    19  VAL19       0.0019
     18  CG2       35.1670   44.3840   -2.0100 C.3    19  VAL19       0.0019
     19  N         29.7820   55.0680  -14.0870 N.3    58  THR58      -0.1203
     20  CA        31.1010   54.6820  -13.6090 C.3    58  THR58       0.1994
     21  C         31.8500   55.8760  -13.0340 C.2    58  THR58       0.2618
     22  O         32.8360   55.7150  -12.3150 O.2    58  THR58      -0.2717
     23  CB        31.9480   54.0380  -14.7370 C.3    58  THR58       0.1784
     24  OG1       32.3880   55.0490  -15.6510 O.3    58  THR58      -0.2211
     25  CG2       31.1220   52.9900  -15.4910 C.3    58  THR58       0.0376
     26  N         31.3780   57.0750  -13.3480 N.am   59  GLY59      -0.1942
     27  CA        32.0160   58.2650  -12.8250 C.3    59  GLY59       0.2014
     28  C         31.3000   58.7310  -11.5710 C.2    59  GLY59       0.2638
     29  O         30.1560   58.3500  -11.3230 O.2    59  GLY59      -0.2714
     30  N         31.9810   59.5430  -10.7690 N.am   60  LEU60      -0.1977
     31  CA        31.3950   60.0860   -9.5490 C.3    60  LEU60       0.1596
     32  C         30.5640   61.3130   -9.9070 C.2    60  LEU60       0.2287
     33  O         31.0160   62.1810  -10.6570 O.2    60  LEU60      -0.2864
     34  CB        32.4880   60.5010   -8.5610 C.3    60  LEU60       0.0297
     35  CG        33.3140   59.4160   -7.8620 C.3    60  LEU60       0.0022
     36  CD1       34.3320   60.0850   -6.9290 C.3    60  LEU60       0.0001
     37  CD2       32.3900   58.4760   -7.0770 C.3    60  LEU60       0.0001
     38  N         35.5830   59.4380   -0.1210 N.3   124  ASP124     -0.1239
     39  CA        36.2010   58.1080   -0.0490 C.3   124  ASP124      0.1674
     40  C         35.7120   57.3210    1.1590 C.2   124  ASP124      0.2266
     41  O         35.3160   56.1540    1.0530 O.2   124  ASP124     -0.2867
     42  CB        37.7110   58.2500    0.0550 C.3   124  ASP124      0.1410
     43  CG        38.3650   58.4910   -1.2840 C.2   124  ASP124      0.3668
     44  OD1       37.7090   59.0740   -2.1850 O.co2 124  ASP124     -0.2456
     45  OD2       39.5450   58.1050   -1.4270 O.co2 124  ASP124     -0.2456
     46  N         32.9390   55.0500    0.8180 N.3   127  ASN127     -0.1240
     47  CA        32.9640   53.9760   -0.1590 C.3   127  ASN127      0.1653
     48  C         32.4100   52.7110    0.4860 C.2   127  ASN127      0.2266
     49  O         32.9020   52.2580    1.5250 O.2   127  ASN127     -0.2867
     50  CB        34.3830   53.7300   -0.6550 C.3   127  ASN127      0.1155
     51  CG        34.4850   52.4870   -1.5040 C.2   127  ASN127      0.2627
     52  OD1       33.7390   52.3130   -2.4680 O.2   127  ASN127     -0.2716
     53  ND2       35.4120   51.6080   -1.1490 N.am  127  ASN127     -0.0877
     54  N         32.3650   49.6640   -0.9160 N.3   129  ASP129     -0.1225
     55  CA        32.8640   48.4490   -1.5630 C.3   129  ASP129      0.1805
     56  C         32.9580   47.3370   -0.5280 C.2   129  ASP129      0.2597
     57  O         32.2540   46.3200   -0.6110 O.2   129  ASP129     -0.2718
     58  CB        34.2470   48.6770   -2.1620 C.3   129  ASP129      0.1424
     59  CG        34.2040   49.4670   -3.4510 C.2   129  ASP129      0.3668
     60  OD1       33.0920   49.7280   -3.9580 O.co2 129  ASP129     -0.2456
     61  OD2       35.2870   49.8250   -3.9590 O.co2 129  ASP129     -0.2456
     62  N         33.8230   47.5500    0.4620 N.am  130  ILE130     -0.1980
     63  CA        34.0260   46.5600    1.5130 C.3   130  ILE130      0.1595
     64  C         32.7320   46.1090    2.1630 C.2   130  ILE130      0.2287
     65  O         32.5080   44.9140    2.3160 O.2   130  ILE130     -0.2864
     66  CB        34.9960   47.0830    2.6080 C.3   130  ILE130      0.0276
     67  CG1       36.3930   47.2550    2.0020 C.3   130  ILE130      0.0022
     68  CG2       35.0280   46.1140    3.8040 C.3   130  ILE130      0.0022
     69  CD1       37.2940   48.2080    2.7560 C.3   130  ILE130      0.0001
     70  N         36.3710   50.0330    6.8110 N.3   454  GLN454     -0.1245
     71  CA        37.5600   50.4520    6.0820 C.3   454  GLN454      0.1566
     72  C         38.8440   49.8750    6.6860 C.2   454  GLN454      0.2260
     73  O         39.8580   49.7670    6.0060 O.2   454  GLN454     -0.2867
     74  CB        37.6400   51.9780    6.0280 C.3   454  GLN454      0.0367
     75  CG        36.3330   52.6600    5.6140 C.3   454  GLN454      0.0905
     76  CD        35.9320   52.4200    4.1590 C.2   454  GLN454      0.2608
     77  OE1       35.9010   51.2850    3.6780 O.2   454  GLN454     -0.2717
     78  NE2       35.6030   53.5000    3.4590 N.am  454  GLN454     -0.0878
     79  N         40.6690   47.1950    4.9420 N.3   457  ASN457     -0.1240
     80  CA        41.4290   47.5590    3.7570 C.3   457  ASN457      0.1653
     81  C         42.9140   47.5370    4.0790 C.2   457  ASN457      0.2266
     82  O         43.4420   48.4670    4.6810 O.2   457  ASN457     -0.2867
     83  CB        41.0370   48.9550    3.2920 C.3   457  ASN457      0.1155
     84  CG        41.5560   49.2680    1.9080 C.2   457  ASN457      0.2627
     85  OD1       42.5930   48.7470    1.5060 O.2   457  ASN457     -0.2716
     86  ND2       40.8440   50.1280    1.1830 N.am  457  ASN457     -0.0877
     87  N         45.4290   48.1060    2.3340 N.3   459  SER459     -0.1202
     88  CA        46.2220   49.1770    1.7470 C.3   459  SER459      0.2020
     89  C         46.2810   50.3210    2.7400 C.2   459  SER459      0.2618
     90  O         47.2430   51.0900    2.7540 O.2   459  SER459     -0.2717
     91  CB        45.6070   49.6520    0.4310 C.3   459  SER459      0.2103
     92  OG        45.6140   48.6160   -0.5370 O.3   459  SER459     -0.2182
     93  N         45.2480   50.4220    3.5750 N.am  460  LEU460     -0.1979
     94  CA        45.1790   51.4680    4.5960 C.3   460  LEU460      0.1596
     95  C         45.8630   51.0300    5.8940 C.2   460  LEU460      0.2287
     96  O         45.6600   49.9150    6.3810 O.2   460  LEU460     -0.2864
     97  CB        43.7260   51.8410    4.8820 C.3   460  LEU460      0.0297
     98  CG        42.9890   52.5650    3.7610 C.3   460  LEU460      0.0022
     99  CD1       41.5330   52.7680    4.1460 C.3   460  LEU460      0.0001
    100  CD2       43.6690   53.8920    3.4960 C.3   460  LEU460      0.0001
@<TRIPOS>BOND
     1    24    23    1
     2    25    23    1
     3    23    20    1
     4    19    20    1
     5    20    21    1
     6     2     5    1
     7     2     1    1
     8     2     3    1
     9    26    21   am
    10    26    27    1
    11     5     6    1
    12    21    22    2
    13    27    28    1
    14     3     4    2
    15     6     7    1
    16     7     8    1
    17    28    29    2
    18    28    30   am
    19     8     9    2
    20    30    31    1
    21    33    32    2
    22    32    31    1
    23     9    10    1
    24     9    11    1
    25    31    34    1
    26    34    35    1
    27    35    37    1
    28    35    36    1
    29    12    13    1
    30    61    59   ar
    31    60    59   ar
    32    59    58    1
    33    17    16    1
    34    13    16    1
    35    13    14    1
    36    52    51    2
    37    16    18    1
    38    44    43   ar
    39    58    55    1
    40    15    14    2
    41    55    54    1
    42    55    56    1
    43    51    53   am
    44    51    50    1
    45    45    43   ar
    46    43    42    1
    47    50    47    1
    48    57    56    2
    49    92    91    1
    50    56    62   am
    51    47    48    1
    52    47    46    1
    53    38    39    1
    54    39    42    1
    55    39    40    1
    56    91    88    1
    57    62    63    1
    58    48    49    2
    59    41    40    2
    60    86    84   am
    61    85    84    2
    62    63    64    1
    63    63    66    1
    64    88    87    1
    65    88    89    1
    66    84    83    1
    67    67    66    1
    68    67    69    1
    69    64    65    2
    70    66    68    1
    71    89    90    2
    72    89    93   am
    73    83    80    1
    74    78    76   am
    75   100    98    1
    76    93    94    1
    77    77    76    2
    78    80    81    1
    79    80    79    1
    80    98    99    1
    81    98    97    1
    82    81    82    2
    83    76    75    1
    84    94    97    1
    85    94    95    1
    86    75    74    1
    87    95    96    2
    88    73    72    2
    89    74    71    1
    90    71    72    1
    91    71    70    1
