@<TRIPOS>MOLECULE
tmp/1dx5P00.pdb
 202 203 0 0 0
SMALL
GASTEIGER

@<TRIPOS>ATOM
      1  N        -12.4850   91.8440   76.2470 N.3    28  CYS28      -0.1235
      2  CA       -12.6370   92.9620   75.3250 C.3    28  CYS28       0.1677
      3  C        -11.2710   93.4580   74.8590 C.2    28  CYS28       0.2270
      4  O        -10.2290   92.9720   75.2930 O.2    28  CYS28      -0.2867
      5  CB       -13.3180   94.1240   76.0730 C.3    28  CYS28       0.0956
      6  SG       -15.1240   94.2350   75.8730 S.3    28  CYS28      -0.0801
      7  N        -18.8560   99.3700   79.1090 N.3    43  HIS43      -0.1226
      8  CA       -19.7850   98.2310   79.0920 C.3    43  HIS43       0.1752
      9  C        -19.0910   96.8770   79.1720 C.2    43  HIS43       0.2596
     10  O        -19.7280   95.8640   79.4440 O.2    43  HIS43      -0.2718
     11  CB       -20.7330   98.2900   77.8810 C.3    43  HIS43       0.0759
     12  CG       -20.1640   97.7090   76.6300 C.ar   43  HIS43       0.0818
     13  ND1      -19.6320   98.4840   75.6260 N.ar   43  HIS43      -0.2268
     14  CD2      -20.0480   96.4210   76.2140 C.ar   43  HIS43       0.1154
     15  CE1      -19.2090   97.7070   74.6490 C.ar   43  HIS43       0.1986
     16  NE2      -19.4490   96.4490   74.9780 N.ar   43  HIS43      -0.2212
     17  N        -17.7900   96.8660   78.9010 N.am   44  CYS44      -0.1970
     18  CA       -16.9970   95.6440   78.9650 C.3    44  CYS44       0.1712
     19  C        -16.7930   95.2410   80.4280 C.2    44  CYS44       0.2296
     20  O        -16.6230   94.0580   80.7600 O.2    44  CYS44      -0.2864
     21  CB       -15.6200   95.8830   78.3400 C.3    44  CYS44       0.0983
     22  SG       -15.5880   96.1120   76.5360 S.3    44  CYS44      -0.0798
     23  N        -27.2180   92.6860   83.3110 N.3    50  TRP50      -0.1241
     24  CA       -26.7230   91.3110   83.2450 C.3    50  TRP50       0.1605
     25  C        -25.8340   90.9960   84.4440 C.2    50  TRP50       0.2264
     26  O        -25.1100   89.9990   84.4470 O.2    50  TRP50      -0.2867
     27  CB       -25.9470   91.0700   81.9470 C.3    50  TRP50       0.0550
     28  CG       -26.7340   91.3550   80.7080 C.ar   50  TRP50       0.0003
     29  CD1      -28.0860   91.5060   80.6120 C.ar   50  TRP50       0.0946
     30  CD2      -26.2100   91.5740   79.3930 C.ar   50  TRP50       0.0152
     31  NE1      -28.4390   91.8170   79.3200 N.ar   50  TRP50      -0.2442
     32  CE2      -27.3070   91.8650   78.5500 C.ar   50  TRP50       0.0810
     33  CE3      -24.9210   91.5560   78.8450 C.ar   50  TRP50       0.0012
     34  CZ2      -27.1560   92.1370   77.1840 C.ar   50  TRP50       0.0191
     35  CZ3      -24.7660   91.8250   77.4870 C.ar   50  TRP50       0.0001
     36  CH2      -25.8810   92.1130   76.6720 C.ar   50  TRP50       0.0015
     37  N        -23.1850   92.3580   85.3930 N.3    52  LYS52      -0.1245
     38  CA       -21.7840   92.3890   84.9980 C.3    52  LYS52       0.1561
     39  C        -21.0890   93.4660   85.8170 C.2    52  LYS52       0.2260
     40  O        -21.5400   94.6050   85.8700 O.2    52  LYS52      -0.2867
     41  CB       -21.6560   92.6900   83.5020 C.3    52  LYS52       0.0271
     42  CG       -20.2160   92.8040   83.0130 C.3    52  LYS52       0.0035
     43  CD       -20.1410   93.2410   81.5610 C.3    52  LYS52       0.0206
     44  CE       -20.7530   92.2190   80.6280 C.3    52  LYS52       0.1093
     45  NZ       -20.5830   92.6180   79.1930 N.3    52  LYS52      -0.1314
     46  N        -25.9720  103.8370   76.4270 N.3    96  LEU96      -0.1245
     47  CA       -24.5920  103.3690   76.5860 C.3    96  LEU96       0.1561
     48  C        -23.7180  104.6020   76.2740 C.2    96  LEU96       0.2260
     49  O        -22.5880  104.4820   75.8030 O.2    96  LEU96      -0.2867
     50  CB       -24.2670  102.2170   75.6240 C.3    96  LEU96       0.0270
     51  CG       -23.8820  100.8460   76.1850 C.3    96  LEU96       0.0019
     52  CD1      -24.8390  100.3950   77.2850 C.3    96  LEU96       0.0001
     53  CD2      -23.8420   99.8440   75.0320 C.3    96  LEU96       0.0001
     54  N        -24.2160   84.0150   66.1990 N.3   148  TRP148     -0.1241
     55  CA       -24.9880   83.6160   67.3840 C.3   148  TRP148      0.1605
     56  C        -26.3460   83.0430   66.9950 C.2   148  TRP148      0.2264
     57  O        -27.3880   83.3750   67.5630 O.2   148  TRP148     -0.2867
     58  CB       -25.0720   84.6540   68.5290 C.3   148  TRP148      0.0550
     59  CG       -25.0420   86.1200   68.2110 C.ar  148  TRP148      0.0003
     60  CD1      -23.9500   86.9350   68.2510 C.ar  148  TRP148      0.0946
     61  CD2      -26.1640   86.9670   67.9320 C.ar  148  TRP148      0.0152
     62  NE1      -24.3180   88.2380   68.0190 N.ar  148  TRP148     -0.2442
     63  CE2      -25.6730   88.2870   67.8200 C.ar  148  TRP148      0.0810
     64  CE3      -27.5380   86.7420   67.7710 C.ar  148  TRP148      0.0012
     65  CZ2      -26.5050   89.3790   67.5560 C.ar  148  TRP148      0.0191
     66  CZ3      -28.3680   87.8300   67.5090 C.ar  148  TRP148      0.0001
     67  CH2      -27.8460   89.1310   67.4030 C.ar  148  TRP148      0.0015
     68  N        -32.2260  104.0380   68.0670 N.3   179  ILE179     -0.1245
     69  CA       -31.5350  104.3380   69.3140 C.3   179  ILE179      0.1561
     70  C        -31.0440  105.7770   69.2600 C.2   179  ILE179      0.2260
     71  O        -30.5780  106.2350   68.2150 O.2   179  ILE179     -0.2867
     72  CB       -30.3520  103.3760   69.5260 C.3   179  ILE179      0.0252
     73  CG1      -30.8810  101.9360   69.5860 C.3   179  ILE179      0.0019
     74  CG2      -29.5770  103.7490   70.7980 C.3   179  ILE179      0.0019
     75  CD1      -29.8090  100.8740   69.7730 C.3   179  ILE179      0.0001
     76  N        -16.8470   95.9100   59.6360 N.3   199  ASP199     -0.1225
     77  CA       -17.4410   96.4300   60.8540 C.3   199  ASP199      0.1805
     78  C        -16.7860   95.7520   62.0510 C.2   199  ASP199      0.2598
     79  O        -16.0590   94.7600   61.9060 O.2   199  ASP199     -0.2718
     80  CB       -18.9520   96.1170   60.8550 C.3   199  ASP199      0.1424
     81  CG       -19.7390   96.8390   62.0480 C.2   199  ASP199      0.3668
     82  OD1      -19.1750   97.7770   62.6640 O.co2 199  ASP199     -0.2456
     83  OD2      -20.8960   96.4340   62.3170 O.co2 199  ASP199     -0.2456
     84  N        -17.0070   96.3360   63.2230 N.am  200  ALA200     -0.1966
     85  CA       -16.5190   95.7720   64.4710 C.3   200  ALA200      0.1728
     86  C        -17.6190   94.7840   64.8970 C.2   200  ALA200      0.2616
     87  O        -18.6990   94.7590   64.3040 O.2   200  ALA200     -0.2715
     88  CB       -16.3590   96.8820   65.5100 C.3   200  ALA200      0.0334
     89  N        -17.3700   93.9910   65.9300 N.am  201  CYS201     -0.1954
     90  CA       -18.3740   93.0360   66.3910 C.3   201  CYS201      0.1843
     91  C        -18.0790   92.6380   67.8410 C.2   201  CYS201      0.2625
     92  O        -17.1820   93.1950   68.4720 O.2   201  CYS201     -0.2714
     93  CB       -18.4020   91.8040   65.4620 C.3   201  CYS201      0.0997
     94  SG       -19.9810   90.8730   65.4520 S.3   201  CYS201     -0.0797
     95  N        -18.8500   91.6880   68.3570 N.am  202  GLU202     -0.1963
     96  CA       -18.7100   91.1940   69.7240 C.3   202  GLU202      0.1733
     97  C        -17.2590   90.8290   70.0640 C.2   202  GLU202      0.2616
     98  O        -16.6170   90.0500   69.3610 O.2   202  GLU202     -0.2715
     99  CB       -19.6230   89.9750   69.9240 C.3   202  GLU202      0.0429
    100  CG       -19.6960   89.4650   71.3610 C.3   202  GLU202      0.1163
    101  CD       -20.5420   88.1020   71.4840 C.2   202  GLU202      0.3649
    102  OE1      -21.7950   88.1720   71.4540 O.co2 202  GLU202     -0.2457
    103  OE2      -19.9140   87.0180   71.5900 O.co2 202  GLU202     -0.2457
    104  N        -16.7580   91.3940   71.1570 N.am  203  GLY203     -0.1955
    105  CA       -15.3880   91.1330   71.5650 C.3   203  GLY203      0.1869
    106  C        -14.4030   92.1980   71.1040 C.2   203  GLY203      0.2309
    107  O        -13.2470   92.1800   71.5200 O.2   203  GLY203     -0.2863
    108  N        -15.1380   95.4620   71.4050 N.3   205  SER205     -0.1217
    109  CA       -15.3910   96.5960   72.2890 C.3   205  SER205      0.1889
    110  C        -14.1420   97.0100   73.0560 C.2   205  SER205      0.2288
    111  O        -13.3450   96.1610   73.4780 O.2   205  SER205     -0.2866
    112  CB       -16.5280   96.2640   73.2570 C.3   205  SER205      0.2089
    113  OG       -17.8040   96.3260   72.6030 O.3   205  SER205     -0.2183
    114  N        -14.4760  101.2800   70.2000 N.3   225  VAL225     -0.1231
    115  CA       -15.5630  100.4210   69.7420 C.3   225  VAL225      0.1692
    116  C        -16.5290  100.3660   70.9150 C.2   225  VAL225      0.2593
    117  O        -16.1470   99.9790   72.0270 O.2   225  VAL225     -0.2718
    118  CB       -15.0790   98.9950   69.3780 C.3   225  VAL225      0.0266
    119  CG1      -16.2590   98.1210   68.9920 C.3   225  VAL225      0.0020
    120  CG2      -14.0960   99.0450   68.2460 C.3   225  VAL225      0.0020
    121  N        -17.7600  100.8230   70.6760 N.am  226  SER226     -0.1938
    122  CA       -18.7760  100.8680   71.7210 C.3   226  SER226      0.2055
    123  C        -20.0040   99.9830   71.5090 C.2   226  SER226      0.2643
    124  O        -20.3160   99.1440   72.3490 O.2   226  SER226     -0.2714
    125  CB       -19.2340  102.3120   71.9420 C.3   226  SER226      0.2130
    126  OG       -20.3360  102.3590   72.8430 O.3   226  SER226     -0.2179
    127  N        -20.7280  100.2100   70.4150 N.am  227  TRP227     -0.1959
    128  CA       -21.9360   99.4460   70.1500 C.3   227  TRP227      0.1771
    129  C        -22.3660   99.3960   68.6990 C.2   227  TRP227      0.2620
    130  O        -21.7810  100.0610   67.8210 O.2   227  TRP227     -0.2715
    131  CB       -23.0990   99.9680   71.0170 C.3   227  TRP227      0.0590
    132  CG       -23.5710  101.3660   70.6970 C.ar  227  TRP227      0.0006
    133  CD1      -23.0780  102.5340   71.2020 C.ar  227  TRP227      0.0946
    134  CD2      -24.6580  101.7320   69.8320 C.ar  227  TRP227      0.0152
    135  NE1      -23.7860  103.6080   70.7090 N.ar  227  TRP227     -0.2442
    136  CE2      -24.7640  103.1450   69.8680 C.ar  227  TRP227      0.0810
    137  CE3      -25.5540  101.0040   69.0340 C.ar  227  TRP227      0.0012
    138  CZ2      -25.7330  103.8460   69.1390 C.ar  227  TRP227      0.0191
    139  CZ3      -26.5280  101.7050   68.3000 C.ar  227  TRP227      0.0001
    140  CH2      -26.6040  103.1150   68.3630 C.ar  227  TRP227      0.0015
    141  N        -23.3840   98.5680   68.4690 N.am  228  GLY228     -0.1940
    142  CA       -23.9590   98.3900   67.1480 C.3   228  GLY228      0.2014
    143  C        -25.2070   97.5220   67.2200 C.2   228  GLY228      0.2639
    144  O        -25.6620   97.1540   68.3020 O.2   228  GLY228     -0.2714
    145  N        -25.8000   97.2380   66.0680 N.am  229  GLU229     -0.1963
    146  CA       -26.9810   96.3770   66.0020 C.3   229  GLU229      0.1733
    147  C        -26.6080   95.3170   64.9870 C.2   229  GLU229      0.2617
    148  O        -26.5980   95.5600   63.7770 O.2   229  GLU229     -0.2715
    149  CB       -28.2130   97.1810   65.5900 C.3   229  GLU229      0.0429
    150  CG       -28.6600   98.1410   66.6790 C.3   229  GLU229      0.1163
    151  CD       -29.8860   99.0680   66.2250 C.2   229  GLU229      0.3649
    152  OE1      -29.6890   99.8920   65.3120 O.co2 229  GLU229     -0.2457
    153  OE2      -30.9870   98.9370   66.8060 O.co2 229  GLU229     -0.2457
    154  N        -26.2620   94.1400   65.5040 N.am  230  GLY230     -0.1940
    155  CA       -25.7990   93.0690   64.6500 C.3   230  GLY230      0.2014
    156  C        -24.3830   93.4740   64.2770 C.2   230  GLY230      0.2639
    157  O        -23.7660   94.2790   64.9790 O.2   230  GLY230     -0.2714
    158  N        -23.8660   92.9380   63.1790 N.am  231  CYS231     -0.1967
    159  CA       -22.5240   93.2800   62.7290 C.3   231  CYS231      0.1712
    160  C        -22.4430   93.2060   61.2160 C.2   231  CYS231      0.2296
    161  O        -22.8130   92.1990   60.6140 O.2   231  CYS231     -0.2864
    162  CB       -21.4830   92.3400   63.3240 C.3   231  CYS231      0.0983
    163  SG       -21.3970   92.3030   65.1400 S.3   231  CYS231     -0.0798
    164  N        -24.3140  100.8290   60.9390 N.3   237  TYR237     -0.1227
    165  CA       -22.9330  101.3000   61.0710 C.3   237  TYR237      0.1736
    166  C        -22.4710  101.0910   62.5060 C.2   237  TYR237      0.2596
    167  O        -23.2650  101.1650   63.4350 O.2   237  TYR237     -0.2718
    168  CB       -22.8440  102.8070   60.7150 C.3   237  TYR237      0.0548
    169  CG       -23.4440  103.1320   59.3670 C.ar  237  TYR237     -0.0200
    170  CD1      -22.6780  103.0320   58.2070 C.ar  237  TYR237     -0.0009
    171  CD2      -24.8050  103.4230   59.2360 C.ar  237  TYR237     -0.0009
    172  CE1      -23.2440  103.1950   56.9430 C.ar  237  TYR237      0.0417
    173  CE2      -25.3910  103.5930   57.9690 C.ar  237  TYR237      0.0417
    174  CZ       -24.5970  103.4730   56.8310 C.ar  237  TYR237      0.1957
    175  OH       -25.1380  103.6280   55.5790 O.3   237  TYR237     -0.2866
    176  N        -21.1940  100.7910   62.6860 N.am  238  GLY238     -0.1942
    177  CA       -20.6720  100.6220   64.0300 C.3   238  GLY238      0.2014
    178  C        -20.6130  101.9740   64.7260 C.2   238  GLY238      0.2639
    179  O        -20.3600  102.9990   64.0910 O.2   238  GLY238     -0.2714
    180  N        -20.9340  101.9900   66.0130 N.am  239  PHE239     -0.1959
    181  CA       -20.9100  103.2140   66.7940 C.3   239  PHE239      0.1771
    182  C        -19.7280  103.1880   67.7530 C.2   239  PHE239      0.2619
    183  O        -19.4040  102.1570   68.3470 O.2   239  PHE239     -0.2715
    184  CB       -22.2390  103.4200   67.5060 C.3   239  PHE239      0.0574
    185  CG       -23.3110  103.9530   66.6050 C.ar  239  PHE239     -0.0200
    186  CD1      -24.0140  103.0980   65.7510 C.ar  239  PHE239     -0.0042
    187  CD2      -23.5700  105.3280   66.5490 C.ar  239  PHE239     -0.0042
    188  CE1      -24.9440  103.6020   64.8550 C.ar  239  PHE239     -0.0003
    189  CE2      -24.5000  105.8420   65.6540 C.ar  239  PHE239     -0.0003
    190  CZ       -25.1870  104.9820   64.8080 C.ar  239  PHE239     -0.0000
    191  N        -19.0460  104.3240   67.8260 N.am  240  TYR240     -0.1974
    192  CA       -17.8540  104.4890   68.6360 C.3   240  TYR240      0.1639
    193  C        -17.9500  105.6350   69.6280 C.2   240  TYR240      0.2290
    194  O        -18.5960  106.6560   69.3760 O.2   240  TYR240     -0.2864
    195  CB       -16.6490  104.7380   67.7180 C.3   240  TYR240      0.0560
    196  CG       -16.4640  103.6650   66.6580 C.ar  240  TYR240     -0.0198
    197  CD1      -17.2870  103.6190   65.5150 C.ar  240  TYR240     -0.0009
    198  CD2      -15.5130  102.6600   66.8230 C.ar  240  TYR240     -0.0009
    199  CE1      -17.1590  102.5830   64.5760 C.ar  240  TYR240      0.0417
    200  CE2      -15.3830  101.6380   65.8950 C.ar  240  TYR240      0.0417
    201  CZ       -16.2020  101.5990   64.7830 C.ar  240  TYR240      0.1957
    202  OH       -16.0640  100.5560   63.8940 O.3   240  TYR240     -0.2866
@<TRIPOS>BOND
     1   175   174    1
     2   174   172   ar
     3   174   173   ar
     4   172   170   ar
     5   173   171   ar
     6   170   169   ar
     7   171   169   ar
     8   169   168    1
     9    76    77    1
    10   161   160    2
    11   168   165    1
    12    77    80    1
    13    77    78    1
    14    80    81    1
    15   164   165    1
    16   165   166    1
    17   160   159    1
    18    79    78    2
    19    81    83   ar
    20    81    82   ar
    21    78    84   am
    22   166   176   am
    23   166   167    2
    24   176   177    1
    25   159   158    1
    26   159   162    1
    27   158   156   am
    28    84    85    1
    29   162   163    1
    30   148   147    2
    31   202   201    1
    32   177   178    1
    33   179   178    2
    34   156   155    1
    35   156   157    2
    36    87    86    2
    37    85    86    1
    38    85    88    1
    39   199   201   ar
    40   199   197   ar
    41   155   154    1
    42   178   180   am
    43   201   200   ar
    44   190   188   ar
    45   190   189   ar
    46   188   186   ar
    47    86    89   am
    48   147   154   am
    49   147   146    1
    50   163    94    1
    51   152   151   ar
    52    94    93    1
    53    93    90    1
    54   197   196   ar
    55   149   146    1
    56   149   150    1
    57   189   187   ar
    58   186   185   ar
    59   200   198   ar
    60    89    90    1
    61   146   145    1
    62   180   181    1
    63   145   143   am
    64    54    55    1
    65   151   150    1
    66   151   153   ar
    67    90    91    1
    68   187   185   ar
    69   185   184    1
    70   196   198   ar
    71   196   195    1
    72   181   184    1
    73   181   182    1
    74    56    55    1
    75    56    57    2
    76   142   143    1
    77   142   141    1
    78   143   144    2
    79    55    58    1
    80    67    66   ar
    81    67    65   ar
    82    66    64   ar
    83    65    63   ar
    84   195   192    1
    85   182   191   am
    86   182   183    2
    87    64    61   ar
    88    63    61   ar
    89    63    62   ar
    90   130   129    2
    91   191   192    1
    92    91    95   am
    93    91    92    2
    94    61    59   ar
    95    62    60   ar
    96    68    69    1
    97    59    60   ar
    98    59    58    1
    99    71    70    2
   100   120   118    1
   101   139   140   ar
   102   139   137   ar
   103    95    96    1
   104   140   138   ar
   105   141   129   am
   106   192   193    1
   107   129   128    1
   108   119   118    1
   109   137   134   ar
   110   138   136   ar
   111    70    69    1
   112    69    72    1
   113    98    97    2
   114   194   193    2
   115   118   115    1
   116    72    73    1
   117    72    74    1
   118    73    75    1
   119    96    99    1
   120    96    97    1
   121   115   114    1
   122   115   116    1
   123   134   136   ar
   124   134   132   ar
   125   136   135   ar
   126    99   100    1
   127    97   104   am
   128   128   127    1
   129   128   131    1
   130   127   123   am
   131   121   116   am
   132   121   122    1
   133   132   131    1
   134   132   133   ar
   135   135   133   ar
   136   116   117    2
   137   106   107    2
   138   106   105    1
   139   104   105    1
   140   100   101    1
   141   108   109    1
   142   102   101   ar
   143   101   103   ar
   144   123   122    1
   145   123   124    2
   146   122   125    1
   147   125   126    1
   148   109   110    1
   149   109   112    1
   150   113   112    1
   151   110   111    2
   152    15    16   ar
   153    15    13   ar
   154     3     4    2
   155     3     2    1
   156    16    14   ar
   157    53    51    1
   158     2     5    1
   159     2     1    1
   160    50    51    1
   161    50    47    1
   162    13    12   ar
   163    49    48    2
   164     6     5    1
   165     6    22    1
   166    51    52    1
   167    14    12   ar
   168    48    47    1
   169    46    47    1
   170    22    21    1
   171    12    11    1
   172    36    34   ar
   173    36    35   ar
   174    34    32   ar
   175    35    33   ar
   176    11     8    1
   177    21    18    1
   178    32    31   ar
   179    32    30   ar
   180    33    30   ar
   181    17    18    1
   182    17     9   am
   183    18    19    1
   184     8     7    1
   185     8     9    1
   186     9    10    2
   187    45    44    1
   188    31    29   ar
   189    30    28   ar
   190    19    20    2
   191    29    28   ar
   192    44    43    1
   193    28    27    1
   194    43    42    1
   195    27    24    1
   196    42    41    1
   197    24    23    1
   198    24    25    1
   199    41    38    1
   200    25    26    2
   201    38    37    1
   202    38    39    1
   203    39    40    2
