@<TRIPOS>MOLECULE
tmp/1dx6A00.pdb
 111 112 0 0 0
SMALL
GASTEIGER

@<TRIPOS>ATOM
      1  N         -7.3710   63.5920   66.2420 N.3    67  TYR67      -0.1241
      2  CA        -7.0060   63.7260   67.6560 C.3    67  TYR67       0.1605
      3  C         -6.4400   65.1440   67.7780 C.2    67  TYR67       0.2264
      4  O         -5.5770   65.5360   66.9850 O.2    67  TYR67      -0.2867
      5  CB        -5.9080   62.7500   68.0100 C.3    67  TYR67       0.0534
      6  CG        -5.4810   62.8440   69.4550 C.ar   67  TYR67      -0.0201
      7  CD1       -6.2540   62.2430   70.4680 C.ar   67  TYR67      -0.0009
      8  CD2       -4.2950   63.5210   69.8270 C.ar   67  TYR67      -0.0009
      9  CE1       -5.8660   62.3020   71.7980 C.ar   67  TYR67       0.0417
     10  CE2       -3.8910   63.5910   71.1950 C.ar   67  TYR67       0.0417
     11  CZ        -4.6900   62.9670   72.1620 C.ar   67  TYR67       0.1957
     12  OH        -4.3000   62.9300   73.4810 O.3    67  TYR67      -0.2866
     13  N         -1.6830   68.7360   75.0160 N.3    71  GLN71      -0.1245
     14  CA        -0.5820   68.7470   75.9710 C.3    71  GLN71       0.1566
     15  C         -0.2610   70.1580   76.5150 C.2    71  GLN71       0.2260
     16  O          0.0660   70.2920   77.6720 O.2    71  GLN71      -0.2867
     17  CB         0.6910   68.1410   75.3730 C.3    71  GLN71       0.0367
     18  CG         0.9660   66.6950   75.7930 C.3    71  GLN71       0.0905
     19  CD         1.0290   66.4870   77.3140 C.2    71  GLN71       0.2608
     20  OE1        1.9990   66.9030   77.9700 O.2    71  GLN71      -0.2717
     21  NE2       -0.0150   65.8430   77.8830 N.am   71  GLN71      -0.0878
     22  N         -2.2850   60.6160   61.5970 N.3   118  TYR118     -0.1241
     23  CA        -3.4540   60.6460   62.4610 C.3   118  TYR118      0.1605
     24  C         -3.9840   62.0540   62.6520 C.2   118  TYR118      0.2264
     25  O         -5.0080   62.2460   63.3170 O.2   118  TYR118     -0.2867
     26  CB        -3.1400   60.0430   63.8460 C.3   118  TYR118      0.0534
     27  CG        -2.2860   60.9120   64.7630 C.ar  118  TYR118     -0.0201
     28  CD1       -2.8480   61.9290   65.5320 C.ar  118  TYR118     -0.0009
     29  CD2       -0.9070   60.6860   64.8800 C.ar  118  TYR118     -0.0009
     30  CE1       -2.0520   62.7030   66.4120 C.ar  118  TYR118      0.0417
     31  CE2       -0.1030   61.4370   65.7570 C.ar  118  TYR118      0.0417
     32  CZ        -0.6740   62.4470   66.5280 C.ar  118  TYR118      0.1957
     33  OH         0.1390   63.1750   67.4120 O.3   118  TYR118     -0.2866
     34  N         -5.6470   55.5390   70.3880 N.3   276  TRP276     -0.1241
     35  CA        -4.3500   55.2180   70.9180 C.3   276  TRP276      0.1605
     36  C         -4.2870   53.9280   71.6920 C.2   276  TRP276      0.2264
     37  O         -3.1990   53.4660   71.9770 O.2   276  TRP276     -0.2867
     38  CB        -3.8580   56.3480   71.7840 C.3   276  TRP276      0.0550
     39  CG        -3.6790   57.5780   71.0240 C.ar  276  TRP276      0.0003
     40  CD1       -4.5720   58.5870   70.8880 C.ar  276  TRP276      0.0946
     41  CD2       -2.5360   57.9370   70.2310 C.ar  276  TRP276      0.0152
     42  NE1       -4.0650   59.5560   70.0620 N.ar  276  TRP276     -0.2442
     43  CE2       -2.8150   59.1810   69.6430 C.ar  276  TRP276      0.0810
     44  CE3       -1.3000   57.3200   69.9640 C.ar  276  TRP276      0.0012
     45  CZ2       -1.8990   59.8390   68.7910 C.ar  276  TRP276      0.0191
     46  CZ3       -0.3800   57.9710   69.1180 C.ar  276  TRP276      0.0001
     47  CH2       -0.6890   59.2170   68.5420 C.ar  276  TRP276      0.0015
     48  N          7.1190   55.2490   71.6190 N.3   284  ILE284     -0.1231
     49  CA         7.1790   56.6430   71.2540 C.3   284  ILE284      0.1692
     50  C          7.3240   56.6090   69.7380 C.2   284  ILE284      0.2592
     51  O          7.8030   55.6040   69.1800 O.2   284  ILE284     -0.2718
     52  CB         8.3250   57.3090   72.1230 C.3   284  ILE284      0.0266
     53  CG1        7.7120   58.5240   72.7370 C.3   284  ILE284      0.0019
     54  CG2        9.6370   57.5370   71.4400 C.3   284  ILE284      0.0020
     55  CD1        6.5010   58.1240   73.4650 C.3   284  ILE284      0.0001
     56  N          6.8300   57.6190   69.0370 N.am  285  PHE285     -0.1976
     57  CA         6.9270   57.6220   67.5750 C.3   285  PHE285      0.1639
     58  C          6.2270   56.4380   66.8610 C.2   285  PHE285      0.2290
     59  O          6.7830   55.8630   65.8970 O.2   285  PHE285     -0.2864
     60  CB         8.4080   57.6760   67.1000 C.3   285  PHE285      0.0560
     61  CG         8.6650   58.6750   65.9760 C.ar  285  PHE285     -0.0200
     62  CD1        7.9600   58.5840   64.7480 C.ar  285  PHE285     -0.0042
     63  CD2        9.5980   59.7280   66.1540 C.ar  285  PHE285     -0.0042
     64  CE1        8.1600   59.5050   63.7200 C.ar  285  PHE285     -0.0003
     65  CE2        9.8200   60.6570   65.1540 C.ar  285  PHE285     -0.0003
     66  CZ         9.0840   60.5490   63.9040 C.ar  285  PHE285     -0.0000
     67  N          2.1030   55.2530   65.6510 N.3   287  PHE287     -0.1241
     68  CA         0.7480   55.7520   65.4750 C.3   287  PHE287      0.1605
     69  C         -0.0930   54.6050   65.0210 C.2   287  PHE287      0.2264
     70  O          0.3590   53.7570   64.3100 O.2   287  PHE287     -0.2867
     71  CB         0.8000   56.8960   64.4420 C.3   287  PHE287      0.0534
     72  CG         1.9610   57.8270   64.6770 C.ar  287  PHE287     -0.0203
     73  CD1        2.0250   58.5900   65.8500 C.ar  287  PHE287     -0.0042
     74  CD2        3.0580   57.8300   63.8200 C.ar  287  PHE287     -0.0042
     75  CE1        3.1660   59.3360   66.1800 C.ar  287  PHE287     -0.0003
     76  CE2        4.2050   58.5600   64.1200 C.ar  287  PHE287     -0.0003
     77  CZ         4.2740   59.3200   65.3050 C.ar  287  PHE287     -0.0000
     78  N         10.8720   66.4830   69.7540 N.3   327  PHE327     -0.1227
     79  CA         9.4260   66.6940   69.8420 C.3   327  PHE327      0.1736
     80  C          8.7560   65.4850   70.4900 C.2   327  PHE327      0.2595
     81  O          7.8360   65.6160   71.3360 O.2   327  PHE327     -0.2718
     82  CB         8.8160   66.8760   68.4360 C.3   327  PHE327      0.0547
     83  CG         7.7130   67.9020   68.3690 C.ar  327  PHE327     -0.0202
     84  CD1        6.9090   68.1740   69.4870 C.ar  327  PHE327     -0.0042
     85  CD2        7.4930   68.6310   67.1910 C.ar  327  PHE327     -0.0042
     86  CE1        5.9430   69.1250   69.4430 C.ar  327  PHE327     -0.0003
     87  CE2        6.5040   69.6020   67.1450 C.ar  327  PHE327     -0.0003
     88  CZ         5.7300   69.8540   68.2650 C.ar  327  PHE327     -0.0000
     89  N          9.2300   64.3000   70.0980 N.am  328  PHE328     -0.1976
     90  CA         8.6450   63.0630   70.5750 C.3   328  PHE328      0.1639
     91  C          9.0480   62.6580   71.9750 C.2   328  PHE328      0.2290
     92  O          8.2620   62.0560   72.6780 O.2   328  PHE328     -0.2864
     93  CB         8.9240   61.9440   69.5660 C.3   328  PHE328      0.0560
     94  CG         8.4920   62.2930   68.1800 C.ar  328  PHE328     -0.0200
     95  CD1        9.2840   63.1290   67.3810 C.ar  328  PHE328     -0.0042
     96  CD2        7.2580   61.8790   67.7070 C.ar  328  PHE328     -0.0042
     97  CE1        8.8350   63.5510   66.1150 C.ar  328  PHE328     -0.0003
     98  CE2        6.8070   62.2840   66.4680 C.ar  328  PHE328     -0.0003
     99  CZ         7.5850   63.1150   65.6670 C.ar  328  PHE328     -0.0000
    100  N          6.8990   64.7970   74.4570 N.3   331  TYR331     -0.1241
    101  CA         5.5660   64.2800   74.6610 C.3   331  TYR331      0.1605
    102  C          5.4740   62.9400   75.3680 C.2   331  TYR331      0.2264
    103  O          4.5460   62.7350   76.1200 O.2   331  TYR331     -0.2867
    104  CB         4.7820   64.2390   73.3420 C.3   331  TYR331      0.0534
    105  CG         4.1800   65.5840   72.9900 C.ar  331  TYR331     -0.0201
    106  CD1        4.9950   66.7290   72.8830 C.ar  331  TYR331     -0.0009
    107  CD2        2.8220   65.7130   72.7260 C.ar  331  TYR331     -0.0009
    108  CE1        4.4760   67.9520   72.5110 C.ar  331  TYR331      0.0417
    109  CE2        2.2770   66.9540   72.3410 C.ar  331  TYR331      0.0417
    110  CZ         3.1130   68.0590   72.2280 C.ar  331  TYR331      0.1957
    111  OH         2.6240   69.2420   71.7460 O.3   331  TYR331     -0.2866
@<TRIPOS>BOND
     1    22    23    1
     2    23    24    1
     3    23    26    1
     4    24    25    2
     5    64    66   ar
     6    64    62   ar
     7    74    76   ar
     8    74    72   ar
     9    26    27    1
    10    66    65   ar
    11    76    77   ar
    12    70    69    2
    13    71    72    1
    14    71    68    1
    15    72    73   ar
    16    62    61   ar
    17    27    29   ar
    18    27    28   ar
    19    29    31   ar
    20    69    68    1
    21    65    63   ar
    22    77    75   ar
    23    68    67    1
    24    28    30   ar
    25    99    97   ar
    26    99    98   ar
    27    31    32   ar
    28    73    75   ar
    29    59    58    2
    30    61    63   ar
    31    61    60    1
    32    97    95   ar
    33     1     2    1
    34    30    32   ar
    35    98    96   ar
    36    32    33    1
    37    58    57    1
    38     4     3    2
    39    60    57    1
    40    87    85   ar
    41    87    88   ar
    42    85    83   ar
    43    95    94   ar
    44    57    56    1
    45     2     3    1
    46     2     5    1
    47    96    94   ar
    48     5     6    1
    49    94    93    1
    50    88    86   ar
    51    83    82    1
    52    83    84   ar
    53    82    79    1
    54    47    45   ar
    55    47    46   ar
    56    45    43   ar
    57    56    50   am
    58    46    44   ar
    59    51    50    2
    60    86    84   ar
    61     6     8   ar
    62     6     7   ar
    63    93    90    1
    64    43    42   ar
    65    43    41   ar
    66    50    49    1
    67    78    79    1
    68     8    10   ar
    69    79    80    1
    70    44    41   ar
    71    42    40   ar
    72    89    80   am
    73    89    90    1
    74    41    39   ar
    75    34    35    1
    76     7     9   ar
    77    80    81    2
    78    90    91    1
    79    40    39   ar
    80    35    36    1
    81    35    38    1
    82    39    38    1
    83    10    11   ar
    84    49    48    1
    85    49    52    1
    86    54    52    1
    87    36    37    2
    88   111   110    1
    89     9    11   ar
    90    91    92    2
    91    52    53    1
    92    11    12    1
    93   110   109   ar
    94   110   108   ar
    95   109   107   ar
    96   108   106   ar
    97   107   105   ar
    98    53    55    1
    99   106   105   ar
   100   105   104    1
   101   104   101    1
   102   100   101    1
   103   101   102    1
   104    13    14    1
   105   102   103    2
   106    17    18    1
   107    17    14    1
   108    18    19    1
   109    14    15    1
   110    15    16    2
   111    19    21   am
   112    19    20    2
