@<TRIPOS>MOLECULE
tmp/1dxmA00.pdb
 92 88 0 0 0
SMALL
GASTEIGER

@<TRIPOS>ATOM
      1  N         35.8030  -10.3400    8.6020 N.3    12  SER12      -0.1202
      2  CA        34.5980   -9.5250    8.7290 C.3    12  SER12       0.2020
      3  C         33.9790   -9.2380    7.3570 C.2    12  SER12       0.2618
      4  O         33.1040   -8.3800    7.2200 O.2    12  SER12      -0.2717
      5  CB        34.8980   -8.2350    9.4990 C.3    12  SER12       0.2103
      6  OG        36.2980   -8.0170    9.6220 O.3    12  SER12      -0.2182
      7  N         34.4500   -9.9810    6.3550 N.am   13  HIS13      -0.1975
      8  CA        33.9790   -9.9100    4.9720 C.3    13  HIS13       0.1656
      9  C         34.3300   -8.7120    4.0930 C.2    13  HIS13       0.2291
     10  O         33.6600   -8.4600    3.0960 O.2    13  HIS13      -0.2864
     11  CB        32.4870  -10.2110    4.9190 C.3    13  HIS13       0.0771
     12  CG        32.1310  -11.5020    5.5780 C.ar   13  HIS13       0.0820
     13  ND1       32.1170  -12.7020    4.9020 N.ar   13  HIS13      -0.2267
     14  CD2       31.8600  -11.7960    6.8720 C.ar   13  HIS13       0.1154
     15  CE1       31.8640  -13.6800    5.7520 C.ar   13  HIS13       0.1986
     16  NE2       31.7030  -13.1570    6.9540 N.ar   13  HIS13      -0.2212
     17  N         29.4110  -12.2140   -0.3270 N.3    30  HIS30      -0.1226
     18  CA        28.8150  -13.0090    0.7470 C.3    30  HIS30       0.1752
     19  C         28.2010  -12.0550    1.7580 C.2    30  HIS30       0.2595
     20  O         27.1110  -12.2980    2.2850 O.2    30  HIS30      -0.2718
     21  CB        29.8870  -13.8750    1.4290 C.3    30  HIS30       0.0759
     22  CG        29.4080  -14.5930    2.6530 C.ar   30  HIS30       0.0818
     23  ND1       29.5080  -14.0530    3.9190 N.ar   30  HIS30      -0.2268
     24  CD2       28.8110  -15.7980    2.8050 C.ar   30  HIS30       0.1154
     25  CE1       28.9860  -14.8950    4.7980 C.ar   30  HIS30       0.1986
     26  NE2       28.5570  -15.9610    4.1460 N.ar   30  HIS30      -0.2212
     27  N         28.8990  -10.9440    1.9760 N.am   31  ALA31      -0.1980
     28  CA        28.4770   -9.9230    2.9210 C.3    31  ALA31       0.1597
     29  C         27.1530   -9.2820    2.5440 C.2    31  ALA31       0.2287
     30  O         26.2350   -9.2560    3.3600 O.2    31  ALA31      -0.2864
     31  CB        29.5660   -8.8640    3.0690 C.3    31  ALA31       0.0319
     32  N         24.1780  -11.5540    2.6380 N.3    34  HIS34      -0.1226
     33  CA        23.7070  -11.7670    3.9960 C.3    34  HIS34       0.1752
     34  C         23.0630  -10.5150    4.5870 C.2    34  HIS34       0.2595
     35  O         22.1110  -10.6060    5.3670 O.2    34  HIS34      -0.2718
     36  CB        24.8440  -12.2710    4.8830 C.3    34  HIS34       0.0759
     37  CG        25.1640  -13.7150    4.6660 C.ar   34  HIS34       0.0818
     38  ND1       25.4600  -14.2290    3.4220 N.ar   34  HIS34      -0.2268
     39  CD2       25.1660  -14.7660    5.5190 C.ar   34  HIS34       0.1154
     40  CE1       25.6230  -15.5360    3.5150 C.ar   34  HIS34       0.1986
     41  NE2       25.4500  -15.8870    4.7790 N.ar   34  HIS34      -0.2212
     42  N         23.5570   -9.3470    4.1950 N.am   35  LEU35      -0.1980
     43  CA        22.9920   -8.1080    4.7030 C.3    35  LEU35       0.1596
     44  C         21.5860   -7.8460    4.1890 C.2    35  LEU35       0.2287
     45  O         20.7430   -7.3050    4.9060 O.2    35  LEU35      -0.2864
     46  CB        23.8690   -6.9250    4.3270 C.3    35  LEU35       0.0297
     47  CG        25.1230   -6.6930    5.1540 C.3    35  LEU35       0.0022
     48  CD1       25.7650   -5.4090    4.6750 C.3    35  LEU35       0.0001
     49  CD2       24.7700   -6.6050    6.6300 C.3    35  LEU35       0.0001
     50  N         21.1790   -2.0010    6.1210 N.3    61  SER61      -0.1217
     51  CA        20.2920   -2.7850    5.2840 C.3    61  SER61       0.1889
     52  C         18.8890   -2.5270    5.7920 C.2    61  SER61       0.2288
     53  O         18.6740   -1.7060    6.6880 O.2    61  SER61      -0.2866
     54  CB        20.6170   -4.2720    5.3970 C.3    61  SER61       0.2089
     55  OG        20.3780   -4.7450    6.7120 O.3    61  SER61      -0.2183
     56  N         17.3140   -4.5810    7.4380 N.3    63  LYS63      -0.1231
     57  CA        17.2310   -5.1500    8.7890 C.3    63  LYS63       0.1693
     58  C         18.1380   -4.4690    9.8020 C.2    63  LYS63       0.2591
     59  O         17.6760   -4.1150   10.8980 O.2    63  LYS63      -0.2718
     60  CB        17.4780   -6.6750    8.8930 C.3    63  LYS63       0.0285
     61  CG        17.8690   -7.4730    7.6550 C.3    63  LYS63       0.0035
     62  CD        18.3790   -8.8540    8.1550 C.3    63  LYS63       0.0206
     63  CE        19.6420   -9.3360    7.4070 C.3    63  LYS63       0.1093
     64  NZ        20.4790   -9.9360    8.4690 N.3    63  LYS63      -0.1314
     65  N         19.4070   -4.2610    9.4440 N.am   64  ALA64      -0.1980
     66  CA        20.3340   -3.6670   10.3920 C.3    64  ALA64       0.1597
     67  C         21.5010   -2.7850    9.9350 C.2    64  ALA64       0.2287
     68  O         21.6740   -2.4790    8.7540 O.2    64  ALA64      -0.2864
     69  CB        20.8650   -4.7800   11.3030 C.3    64  ALA64       0.0319
     70  N         25.4740   -2.4230    9.9230 N.3    66  SER66      -0.1217
     71  CA        26.6480   -3.2690    9.9050 C.3    66  SER66       0.1889
     72  C         27.9130   -2.4250    9.7310 C.2    66  SER66       0.2288
     73  O         28.1650   -1.8680    8.6590 O.2    66  SER66      -0.2866
     74  CB        26.4950   -4.2710    8.7580 C.3    66  SER66       0.2089
     75  OG        27.5030   -5.2570    8.7860 O.3    66  SER66      -0.2183
     76  N         31.6980  -20.5940    8.5930 N.3   127  GLU127     -0.1231
     77  CA        30.7520  -19.6950    9.2340 C.3   127  GLU127      0.1699
     78  C         29.3090  -20.0480    8.8600 C.2   127  GLU127      0.2592
     79  O         28.4140  -19.9870    9.7070 O.2   127  GLU127     -0.2718
     80  CB        31.0860  -18.2540    8.8430 C.3   127  GLU127      0.0402
     81  CG        30.5330  -17.1740    9.7640 C.3   127  GLU127      0.1161
     82  CD        31.0330  -15.7830    9.4010 C.2   127  GLU127      0.3649
     83  OE1       31.5970  -15.6130    8.3010 O.co2 127  GLU127     -0.2457
     84  OE2       30.8680  -14.8540   10.2170 O.co2 127  GLU127     -0.2457
     85  N         29.0890  -20.4140    7.5970 N.am  128  ASP128     -0.1974
     86  CA        27.7570  -20.7920    7.1300 C.3   128  ASP128      0.1709
     87  C         27.3490  -22.1420    7.7230 C.2   128  ASP128      0.2293
     88  O         26.1690  -22.3750    7.9930 O.2   128  ASP128     -0.2864
     89  CB        27.7150  -20.8870    5.5980 C.3   128  ASP128      0.1436
     90  CG        27.8240  -19.5320    4.9100 C.2   128  ASP128      0.3671
     91  OD1       27.3400  -18.5230    5.4690 O.co2 128  ASP128     -0.2456
     92  OD2       28.3840  -19.4830    3.7910 O.co2 128  ASP128     -0.2456
@<TRIPOS>BOND
     1    17    18    1
     2    18    21    1
     3    18    19    1
     4    21    22    1
     5    19    27   am
     6    19    20    2
     7    27    28    1
     8    29    28    1
     9    29    30    2
    10    32    33    1
    11    22    24   ar
    12    22    23   ar
    13    24    26   ar
    14    28    31    1
    15    10     9    2
    16    38    40   ar
    17    38    37   ar
    18    40    41   ar
    19    92    90   ar
    20    23    25   ar
    21    33    34    1
    22    33    36    1
    23     9     8    1
    24    26    25   ar
    25    44    43    1
    26    44    45    2
    27    42    34   am
    28    42    43    1
    29    46    43    1
    30    46    47    1
    31    34    35    2
    32    37    36    1
    33    37    39   ar
    34    48    47    1
    35    41    39   ar
    36    13    12   ar
    37    13    15   ar
    38    90    91   ar
    39    90    89    1
    40    11     8    1
    41    11    12    1
    42     8     7    1
    43    47    49    1
    44    51    54    1
    45    51    52    1
    46    51    50    1
    47    54    55    1
    48    12    14   ar
    49    89    86    1
    50    15    16   ar
    51    52    53    2
    52     7     3   am
    53    14    16   ar
    54    86    85    1
    55    86    87    1
    56     4     3    2
    57     3     2    1
    58    63    62    1
    59    63    64    1
    60    56    57    1
    61    85    78   am
    62    61    62    1
    63    61    60    1
    64    87    88    2
    65    83    82   ar
    66    76    77    1
    67     1     2    1
    68    73    72    2
    69     2     5    1
    70    68    67    2
    71    74    75    1
    72    74    71    1
    73    57    60    1
    74    57    58    1
    75    80    77    1
    76    80    81    1
    77    78    77    1
    78    78    79    2
    79    82    81    1
    80    82    84   ar
    81    65    58   am
    82    65    66    1
    83     5     6    1
    84    72    71    1
    85    58    59    2
    86    71    70    1
    87    67    66    1
    88    66    69    1
