@<TRIPOS>MOLECULE
tmp/1dxrC04.pdb
 125 119 0 0 0
SMALL
GASTEIGER

@<TRIPOS>ATOM
      1  N        126.4100   64.9590    6.3060 N.3   185  MET185     -0.1230
      2  CA       127.6920   64.7000    5.6520 C.3   185  MET185      0.1702
      3  C        128.1520   65.8840    4.8060 C.2   185  MET185      0.2592
      4  O        129.3140   66.2800    4.8620 O.2   185  MET185     -0.2718
      5  CB       127.5990   63.4640    4.7720 C.3   185  MET185      0.0401
      6  CG       128.6540   63.4450    3.6960 C.3   185  MET185      0.0596
      7  SD       128.3460   62.1390    2.5830 S.3   185  MET185     -0.1393
      8  CE       129.8430   62.1570    1.6040 C.3   185  MET185      0.0692
      9  N        127.2430   66.4190    3.9950 N.am  186  ALA186     -0.1980
     10  CA       127.5530   67.5280    3.0970 C.3   186  ALA186      0.1597
     11  C        127.9660   68.7950    3.8410 C.2   186  ALA186      0.2287
     12  O        128.8080   69.5530    3.3550 O.2   186  ALA186     -0.2864
     13  CB       126.3510   67.8250    2.1780 C.3   186  ALA186      0.0319
     14  N        131.4860   68.2420    4.9970 N.3   189  LEU189     -0.1231
     15  CA       132.3400   68.3660    3.8240 C.3   189  LEU189      0.1693
     16  C        132.4830   69.8160    3.3730 C.2   189  LEU189      0.2592
     17  O        133.6000   70.2560    3.0830 O.2   189  LEU189     -0.2718
     18  CB       131.7980   67.5320    2.6570 C.3   189  LEU189      0.0284
     19  CG       131.9340   66.0190    2.6820 C.3   189  LEU189      0.0019
     20  CD1      131.2130   65.4430    1.4780 C.3   189  LEU189      0.0001
     21  CD2      133.3940   65.6430    2.6510 C.3   189  LEU189      0.0001
     22  N        131.3700   70.5480    3.2340 N.am  190  HIS190     -0.1976
     23  CA       131.4430   71.9580    2.8250 C.3   190  HIS190      0.1656
     24  C        132.2140   72.8140    3.8510 C.2   190  HIS190      0.2291
     25  O        133.1000   73.5890    3.4750 O.2   190  HIS190     -0.2864
     26  CB       130.0500   72.5590    2.6130 C.3   190  HIS190      0.0771
     27  CG       130.0790   74.0220    2.2970 C.ar  190  HIS190      0.0820
     28  ND1      130.8390   74.5660    1.2850 N.ar  190  HIS190     -0.2267
     29  CD2      129.5540   75.0820    2.9680 C.ar  190  HIS190      0.1154
     30  CE1      130.7620   75.9100    1.3720 C.ar  190  HIS190      0.1986
     31  NE2      129.9910   76.2830    2.3830 N.ar  190  HIS190     -0.2212
     32  N        135.9120   71.9310    3.8320 N.3   193  LEU193     -0.1245
     33  CA       136.6310   72.3620    2.6430 C.3   193  LEU193      0.1561
     34  C        137.0110   73.8210    2.7620 C.2   193  LEU193      0.2260
     35  O        138.1670   74.1690    2.5330 O.2   193  LEU193     -0.2867
     36  CB       135.8140   72.1440    1.3630 C.3   193  LEU193      0.0270
     37  CG       136.5910   72.6290    0.1240 C.3   193  LEU193      0.0019
     38  CD1      137.7390   71.6670   -0.2370 C.3   193  LEU193      0.0001
     39  CD2      135.6360   72.7630   -1.0130 C.3   193  LEU193      0.0001
     40  N        139.6550   74.3410   -4.4370 N.3   212  GLU212     -0.1231
     41  CA       138.4210   73.7140   -3.9670 C.3   212  GLU212      0.1699
     42  C        137.9160   72.7470   -5.0280 C.2   212  GLU212      0.2592
     43  O        137.5460   71.6060   -4.7240 O.2   212  GLU212     -0.2718
     44  CB       137.3440   74.7610   -3.7190 C.3   212  GLU212      0.0402
     45  CG       137.6590   75.8360   -2.6820 C.3   212  GLU212      0.1161
     46  CD       136.4540   76.7300   -2.4140 C.2   212  GLU212      0.3649
     47  OE1      135.3070   76.2600   -2.5620 O.co2 212  GLU212     -0.2457
     48  OE2      136.6370   77.9120   -2.0760 O.co2 212  GLU212     -0.2457
     49  N        137.8880   73.2210   -6.2730 N.am  213  ASN213     -0.1974
     50  CA       137.4080   72.4230   -7.3920 C.3   213  ASN213      0.1688
     51  C        138.3190   71.2360   -7.6070 C.2   213  ASN213      0.2292
     52  O        137.8460   70.1210   -7.7870 O.2   213  ASN213     -0.2864
     53  CB       137.3320   73.2680   -8.6690 C.3   213  ASN213      0.1181
     54  CG       136.0750   74.1330   -8.7330 C.2   213  ASN213      0.2629
     55  OD1      135.0180   73.7700   -8.2120 O.2   213  ASN213     -0.2716
     56  ND2      136.1660   75.2490   -9.4340 N.am  213  ASN213     -0.0877
     57  N        137.8300   68.1490   -4.8070 N.3   216  PHE216     -0.1241
     58  CA       136.7350   67.2050   -5.0240 C.3   216  PHE216      0.1605
     59  C        136.7630   66.4720   -6.3600 C.2   216  PHE216      0.2264
     60  O        136.3830   65.3080   -6.4270 O.2   216  PHE216     -0.2867
     61  CB       135.3820   67.8830   -4.8090 C.3   216  PHE216      0.0534
     62  CG       134.9700   67.9060   -3.3740 C.ar  216  PHE216     -0.0203
     63  CD1      134.6690   66.7240   -2.7190 C.ar  216  PHE216     -0.0042
     64  CD2      135.0350   69.0850   -2.6360 C.ar  216  PHE216     -0.0042
     65  CE1      134.4410   66.7140   -1.3510 C.ar  216  PHE216     -0.0003
     66  CE2      134.8020   69.0810   -1.2770 C.ar  216  PHE216     -0.0003
     67  CZ       134.5050   67.8980   -0.6370 C.ar  216  PHE216     -0.0000
     68  N        136.4970   62.6290   -5.6600 N.3   220  VAL220     -0.1245
     69  CA       135.3160   61.9190   -6.1640 C.3   220  VAL220      0.1561
     70  C        135.0200   62.0880   -7.6600 C.2   220  VAL220      0.2260
     71  O        134.0740   61.5010   -8.1610 O.2   220  VAL220     -0.2867
     72  CB       134.0070   62.2650   -5.3470 C.3   220  VAL220      0.0252
     73  CG1      134.1780   61.8520   -3.9080 C.3   220  VAL220      0.0019
     74  CG2      133.6680   63.7410   -5.4290 C.3   220  VAL220      0.0019
     75  N        134.0800   64.8150   -9.1990 N.3   222  TYR222     -0.1227
     76  CA       133.1790   65.9180   -9.4820 C.3   222  TYR222      0.1736
     77  C        133.2080   66.9890   -8.3900 C.2   222  TYR222      0.2596
     78  O        133.0920   66.6860   -7.1920 O.2   222  TYR222     -0.2718
     79  CB       131.7510   65.4030   -9.6530 C.3   222  TYR222      0.0548
     80  CG       130.7710   66.4900  -10.0260 C.ar  222  TYR222     -0.0200
     81  CD1      130.9600   67.2630  -11.1720 C.ar  222  TYR222     -0.0009
     82  CD2      129.7020   66.8090   -9.1920 C.ar  222  TYR222     -0.0009
     83  CE1      130.1110   68.3360  -11.4780 C.ar  222  TYR222      0.0417
     84  CE2      128.8490   67.8880   -9.4870 C.ar  222  TYR222      0.0417
     85  CZ       129.0620   68.6460  -10.6310 C.ar  222  TYR222      0.1957
     86  OH       128.2490   69.7210  -10.9030 O.3   222  TYR222     -0.2866
     87  N        133.3320   68.2430   -8.8160 N.am  223  SER223     -0.1938
     88  CA       133.1220   69.3770   -7.9390 C.3   223  SER223      0.2055
     89  C        131.9000   70.1870   -8.3880 C.2   223  SER223      0.2643
     90  O        131.8130   70.6120   -9.5380 O.2   223  SER223     -0.2714
     91  CB       134.3600   70.2520   -7.9270 C.3   223  SER223      0.2130
     92  OG       134.0690   71.4770   -7.2890 O.3   223  SER223     -0.2179
     93  N        130.9580   70.4190   -7.4750 N.am  224  ILE224     -0.1963
     94  CA       129.7030   71.0560   -7.8490 C.3   224  ILE224      0.1727
     95  C        129.8360   72.5640   -8.0050 C.2   224  ILE224      0.2617
     96  O        129.0150   73.2030   -8.6610 O.2   224  ILE224     -0.2715
     97  CB       128.5720   70.7000   -6.8340 C.3   224  ILE224      0.0290
     98  CG1      127.2170   71.1170   -7.4020 C.3   224  ILE224      0.0022
     99  CG2      128.8490   71.3360   -5.4660 C.3   224  ILE224      0.0023
    100  CD1      126.0640   70.5240   -6.6900 C.3   224  ILE224      0.0001
    101  N        130.9140   73.1210   -7.4640 N.am  225  GLY225     -0.1940
    102  CA       131.1210   74.5540   -7.5460 C.3   225  GLY225      0.2014
    103  C        130.6760   75.3230   -6.3060 C.2   225  GLY225      0.2638
    104  O        129.7360   74.9140   -5.6140 O.2   225  GLY225     -0.2714
    105  N        131.2190   76.5270   -6.1460 N.am  226  ALA226     -0.1977
    106  CA       131.0790   77.2970   -4.9280 C.3   226  ALA226      0.1597
    107  C        129.6720   77.8400   -4.6960 C.2   226  ALA226      0.2287
    108  O        129.1350   77.6850   -3.6010 O.2   226  ALA226     -0.2864
    109  CB       132.0950   78.4160   -4.9120 C.3   226  ALA226      0.0319
    110  N        127.0730   74.5680   -4.2710 N.3   229  ILE229     -0.1245
    111  CA       127.0480   73.7900   -3.0230 C.3   229  ILE229      0.1561
    112  C        126.0750   74.3980   -1.9940 C.2   229  ILE229      0.2260
    113  O        125.4250   73.6630   -1.2550 O.2   229  ILE229     -0.2867
    114  CB       128.4640   73.6280   -2.3880 C.3   229  ILE229      0.0252
    115  CG1      128.3830   72.6690   -1.2050 C.3   229  ILE229      0.0019
    116  CG2      129.0220   74.9700   -1.9310 C.3   229  ILE229      0.0019
    117  CD1      127.7430   71.3370   -1.5400 C.3   229  ILE229      0.0001
    118  N        122.6330   73.4340   -3.2420 N.3   232  LEU232     -0.1245
    119  CA       122.4500   72.0390   -2.8970 C.3   232  LEU232      0.1561
    120  C        122.1350   71.8440   -1.4100 C.2   232  LEU232      0.2260
    121  O        121.2640   71.0550   -1.0650 O.2   232  LEU232     -0.2867
    122  CB       123.6770   71.2190   -3.2960 C.3   232  LEU232      0.0270
    123  CG       123.6320   69.7240   -2.9450 C.3   232  LEU232      0.0019
    124  CD1      122.6330   68.9660   -3.8260 C.3   232  LEU232      0.0001
    125  CD2      125.0230   69.1310   -3.0840 C.3   232  LEU232      0.0001
@<TRIPOS>BOND
     1    83    81   ar
     2    83    85   ar
     3    81    80   ar
     4    86    85    1
     5    85    84   ar
     6    80    79    1
     7    80    82   ar
     8    79    76    1
     9    90    89    2
    10    84    82   ar
    11    76    75    1
    12    76    77    1
    13    56    54   am
    14    87    77   am
    15    87    88    1
    16    54    53    1
    17    54    55    2
    18    53    50    1
    19    96    95    2
    20    77    78    2
    21    89    88    1
    22    89    93   am
    23    71    70    2
    24    95    94    1
    25    95   101   am
    26    88    91    1
    27    91    92    1
    28    94    93    1
    29    94    97    1
    30    52    51    2
    31    70    69    1
    32    51    50    1
    33   102   101    1
    34   102   103    1
    35    98    97    1
    36    98   100    1
    37    50    49    1
    38    97    99    1
    39    60    59    2
    40    59    58    1
    41   103   105   am
    42   103   104    2
    43    49    42   am
    44    69    68    1
    45    69    72    1
    46   105   106    1
    47    74    72    1
    48    72    73    1
    49    42    43    2
    50    42    41    1
    51    58    61    1
    52    58    57    1
    53   106   109    1
    54   106   107    1
    55    61    62    1
    56   107   108    2
    57    40    41    1
    58   110   111    1
    59    41    44    1
    60   124   123    1
    61    44    45    1
    62    62    63   ar
    63    62    64   ar
    64   122   123    1
    65   122   119    1
    66   118   119    1
    67   125   123    1
    68   111   114    1
    69   111   112    1
    70   119   120    1
    71    63    65   ar
    72    45    46    1
    73    64    66   ar
    74    47    46   ar
    75    46    48   ar
    76   114   116    1
    77   114   115    1
    78   112   113    2
    79   117   115    1
    80   120   121    2
    81    65    67   ar
    82    66    67   ar
    83    39    37    1
    84    38    37    1
    85    37    36    1
    86    28    30   ar
    87    28    27   ar
    88    36    33    1
    89    30    31   ar
    90    20    19    1
    91     8     7    1
    92    13    10    1
    93    27    26    1
    94    27    29   ar
    95    31    29   ar
    96    35    34    2
    97     7     6    1
    98    26    23    1
    99    33    34    1
   100    33    32    1
   101    21    19    1
   102    18    19    1
   103    18    15    1
   104    23    22    1
   105    23    24    1
   106    17    16    2
   107    10    11    1
   108    10     9    1
   109    22    16   am
   110    12    11    2
   111    16    15    1
   112    25    24    2
   113     6     5    1
   114    15    14    1
   115     9     3   am
   116     5     2    1
   117     3     4    2
   118     3     2    1
   119     2     1    1
