@<TRIPOS>MOLECULE
tmp/1dxtD00.pdb
 210 201 0 0 0
SMALL
GASTEIGER

@<TRIPOS>ATOM
      1  N        -18.7540   -2.0000  -10.7270 N.3    29  LEU29      -0.1245
      2  CA       -17.8590   -1.4900  -11.7730 C.3    29  LEU29       0.1561
      3  C        -18.0300    0.0160  -11.9970 C.2    29  LEU29       0.2260
      4  O        -17.0240    0.7270  -12.1600 O.2    29  LEU29      -0.2867
      5  CB       -18.0440   -2.3110  -13.0670 C.3    29  LEU29       0.0270
      6  CG       -17.0060   -1.9220  -14.1410 C.3    29  LEU29       0.0019
      7  CD1      -15.6010   -2.3250  -13.7160 C.3    29  LEU29       0.0001
      8  CD2      -17.3940   -2.6390  -15.4280 C.3    29  LEU29       0.0001
      9  N        -16.3700    1.9690   -9.3090 N.3    32  LEU32      -0.1245
     10  CA       -14.9050    1.9120   -9.4670 C.3    32  LEU32       0.1561
     11  C        -14.4350    3.0130  -10.4240 C.2    32  LEU32       0.2260
     12  O        -13.4710    3.7270  -10.1430 O.2    32  LEU32      -0.2867
     13  CB       -14.4790    0.5000   -9.9590 C.3    32  LEU32       0.0270
     14  CG       -12.9860    0.3940  -10.2620 C.3    32  LEU32       0.0019
     15  CD1      -12.2020    0.2000   -8.9600 C.3    32  LEU32       0.0001
     16  CD2      -12.7340   -0.7880  -11.1700 C.3    32  LEU32       0.0001
     17  N         -8.9250    4.2420  -13.4640 N.3    39  THR39      -0.1218
     18  CA        -9.2790    2.8780  -13.8900 C.3    39  THR39       0.1862
     19  C         -9.9830    2.8910  -15.2520 C.2    39  THR39       0.2287
     20  O        -10.1240    1.8300  -15.9070 O.2    39  THR39      -0.2866
     21  CB       -10.1190    2.1330  -12.7830 C.3    39  THR39       0.1770
     22  OG1      -11.3600    2.8890  -12.6110 O.3    39  THR39      -0.2211
     23  CG2       -9.3260    1.9440  -11.4700 C.3    39  THR39       0.0375
     24  N         -8.8010    1.3800  -19.0670 N.3    42  PHE42      -0.1227
     25  CA        -9.0350    0.0710  -19.7020 C.3    42  PHE42       0.1736
     26  C        -10.3280    0.0190  -20.5230 C.2    42  PHE42       0.2595
     27  O        -10.5920   -1.0220  -21.1510 O.2    42  PHE42      -0.2718
     28  CB        -9.0960   -1.0780  -18.6570 C.3    42  PHE42       0.0547
     29  CG        -7.8250   -1.1180  -17.8310 C.ar   42  PHE42      -0.0202
     30  CD1       -6.6430   -1.5820  -18.4290 C.ar   42  PHE42      -0.0042
     31  CD2       -7.8360   -0.6740  -16.5110 C.ar   42  PHE42      -0.0042
     32  CE1       -5.4540   -1.6010  -17.7020 C.ar   42  PHE42      -0.0003
     33  CE2       -6.6580   -0.6930  -15.7690 C.ar   42  PHE42      -0.0003
     34  CZ        -5.4810   -1.1580  -16.3610 C.ar   42  PHE42      -0.0000
     35  N        -11.0840    1.0940  -20.4890 N.am   43  PHE43      -0.1976
     36  CA       -12.4270    1.0620  -21.0970 C.3    43  PHE43       0.1639
     37  C        -12.6620    2.1810  -22.0540 C.2    43  PHE43       0.2290
     38  O        -13.7990    2.6960  -22.1250 O.2    43  PHE43      -0.2864
     39  CB       -13.4330    1.1020  -19.9160 C.3    43  PHE43       0.0560
     40  CG       -13.2680   -0.0520  -18.9600 C.ar   43  PHE43      -0.0200
     41  CD1      -13.5550   -1.3650  -19.3630 C.ar   43  PHE43      -0.0042
     42  CD2      -12.8220    0.1900  -17.6580 C.ar   43  PHE43      -0.0042
     43  CE1      -13.4200   -2.4280  -18.4740 C.ar   43  PHE43      -0.0003
     44  CE2      -12.6670   -0.8760  -16.7680 C.ar   43  PHE43      -0.0003
     45  CZ       -12.9600   -2.1760  -17.1630 C.ar   43  PHE43      -0.0000
     46  N        -13.1460    2.1420  -25.0810 N.3    45  SER45      -0.1202
     47  CA       -14.1750    1.8600  -26.0890 C.3    45  SER45       0.2020
     48  C        -15.5750    1.7640  -25.5490 C.2    45  SER45       0.2618
     49  O        -16.4870    1.4270  -26.3350 O.2    45  SER45      -0.2717
     50  CB       -13.7910    0.5680  -26.8180 C.3    45  SER45       0.2103
     51  OG       -14.0590   -0.5500  -25.9720 O.3    45  SER45      -0.2182
     52  N        -15.8470    2.0000  -24.2970 N.am   46  PHE46      -0.1975
     53  CA       -17.1510    1.8640  -23.6540 C.3    46  PHE46       0.1639
     54  C        -18.1040    3.0280  -23.8340 C.2    46  PHE46       0.2290
     55  O        -19.2840    2.9230  -23.4040 O.2    46  PHE46      -0.2864
     56  CB       -16.9550    1.6230  -22.1370 C.3    46  PHE46       0.0560
     57  CG       -16.7820    0.1970  -21.7400 C.ar   46  PHE46      -0.0200
     58  CD1      -16.2720   -0.7480  -22.6150 C.ar   46  PHE46      -0.0042
     59  CD2      -17.1310   -0.1780  -20.4340 C.ar   46  PHE46      -0.0042
     60  CE1      -16.1160   -2.0810  -22.2090 C.ar   46  PHE46      -0.0003
     61  CE2      -16.9740   -1.4950  -20.0180 C.ar   46  PHE46      -0.0003
     62  CZ       -16.4830   -2.4310  -20.9150 C.ar   46  PHE46      -0.0000
     63  N        -20.4710   -5.2740  -18.7010 N.3    64  HIS64      -0.1241
     64  CA       -19.1380   -5.7270  -18.2410 C.3    64  HIS64       0.1621
     65  C        -19.2070   -6.0710  -16.7700 C.2    64  HIS64       0.2264
     66  O        -18.6960   -7.1320  -16.3540 O.2    64  HIS64      -0.2867
     67  CB       -18.0210   -4.6880  -18.5100 C.3    64  HIS64       0.0745
     68  CG       -16.6620   -5.3050  -18.3450 C.ar   64  HIS64       0.0817
     69  ND1      -16.2790   -6.4330  -19.0340 N.ar   64  HIS64      -0.2268
     70  CD2      -15.6380   -4.9730  -17.5210 C.ar   64  HIS64       0.1154
     71  CE1      -15.0590   -6.7560  -18.6320 C.ar   64  HIS64       0.1986
     72  NE2      -14.6330   -5.8870  -17.7300 N.ar   64  HIS64      -0.2212
     73  N        -20.6200   -9.4110  -16.2440 N.3    67  LYS67      -0.1231
     74  CA       -19.6580  -10.4420  -16.6510 C.3    67  LYS67       0.1693
     75  C        -18.6530  -10.7090  -15.5460 C.2    67  LYS67       0.2592
     76  O        -18.3140  -11.8360  -15.1520 O.2    67  LYS67      -0.2718
     77  CB       -18.9370  -10.0910  -17.9470 C.3    67  LYS67       0.0285
     78  CG       -18.5390  -11.3330  -18.7310 C.3    67  LYS67       0.0035
     79  CD       -17.8540  -11.0630  -20.0590 C.3    67  LYS67       0.0206
     80  CE       -17.4210  -12.3690  -20.7250 C.3    67  LYS67       0.1093
     81  NZ       -16.4600  -12.1490  -21.8420 N.3    67  LYS67      -0.1314
     82  N        -18.1450   -9.6120  -15.0200 N.am   68  VAL68      -0.1966
     83  CA       -17.1280   -9.7310  -13.9530 C.3    68  VAL68       0.1727
     84  C        -17.6840  -10.3720  -12.7060 C.2    68  VAL68       0.2616
     85  O        -17.0180  -11.2350  -12.0810 O.2    68  VAL68      -0.2715
     86  CB       -16.5790   -8.2840  -13.7220 C.3    68  VAL68       0.0290
     87  CG1      -15.8400   -8.1430  -12.4110 C.3    68  VAL68       0.0023
     88  CG2      -15.7520   -7.8180  -14.9030 C.3    68  VAL68       0.0023
     89  N        -18.8540   -9.9510  -12.2450 N.am   69  LEU69      -0.1977
     90  CA       -19.3740  -10.5140  -10.9600 C.3    69  LEU69       0.1596
     91  C        -19.8430  -11.9510  -11.1100 C.2    69  LEU69       0.2287
     92  O        -19.8750  -12.7080  -10.1320 O.2    69  LEU69      -0.2864
     93  CB       -20.4340   -9.5940  -10.3840 C.3    69  LEU69       0.0297
     94  CG       -20.1860   -8.5740   -9.3120 C.3    69  LEU69       0.0022
     95  CD1      -20.8400   -9.0350   -8.0090 C.3    69  LEU69       0.0001
     96  CD2      -18.7180   -8.2520   -9.0880 C.3    69  LEU69       0.0001
     97  N        -18.2730  -14.1220  -12.9720 N.3    71  ALA71      -0.1231
     98  CA       -17.0100  -14.9030  -12.8450 C.3    71  ALA71       0.1694
     99  C        -16.6220  -14.9370  -11.3650 C.2    71  ALA71       0.2592
    100  O        -16.1580  -15.9420  -10.7760 O.2    71  ALA71      -0.2718
    101  CB       -15.9400  -14.3820  -13.7640 C.3    71  ALA71       0.0304
    102  N        -16.8770  -13.8090  -10.7080 N.am   72  PHE72      -0.1976
    103  CA       -16.6380  -13.6710   -9.2750 C.3    72  PHE72       0.1639
    104  C        -17.5460  -14.6720   -8.5580 C.2    72  PHE72       0.2290
    105  O        -17.0780  -15.3030   -7.6000 O.2    72  PHE72      -0.2864
    106  CB       -16.8610  -12.2300   -8.7740 C.3    72  PHE72       0.0560
    107  CG       -16.6410  -12.0670   -7.2820 C.ar   72  PHE72      -0.0200
    108  CD1      -17.6680  -12.3220   -6.3770 C.ar   72  PHE72      -0.0042
    109  CD2      -15.3910  -11.6520   -6.8110 C.ar   72  PHE72      -0.0042
    110  CE1      -17.4580  -12.1920   -4.9920 C.ar   72  PHE72      -0.0003
    111  CE2      -15.1800  -11.5020   -5.4540 C.ar   72  PHE72      -0.0003
    112  CZ       -16.1940  -11.7740   -4.5460 C.ar   72  PHE72      -0.0000
    113  N         -9.1420  -19.4500  -11.0390 N.3    86  PHE86      -0.1241
    114  CA        -8.8870  -18.2270  -11.8200 C.3    86  PHE86       0.1605
    115  C         -7.6620  -18.2290  -12.7030 C.2    86  PHE86       0.2264
    116  O         -7.3800  -17.1910  -13.3670 O.2    86  PHE86      -0.2867
    117  CB        -8.8980  -17.0320  -10.8050 C.3    86  PHE86       0.0534
    118  CG       -10.2800  -16.6970  -10.3280 C.ar   86  PHE86      -0.0203
    119  CD1      -11.2090  -16.1250  -11.1890 C.ar   86  PHE86      -0.0042
    120  CD2      -10.6540  -16.9740   -9.0100 C.ar   86  PHE86      -0.0042
    121  CE1      -12.5190  -15.8380  -10.7560 C.ar   86  PHE86      -0.0003
    122  CE2      -11.9290  -16.6710   -8.5520 C.ar   86  PHE86      -0.0003
    123  CZ       -12.8730  -16.1290   -9.4230 C.ar   86  PHE86      -0.0000
    124  N         -8.1440  -16.8890  -16.4050 N.3    89  LEU89      -0.1245
    125  CA        -8.4470  -15.4480  -16.3800 C.3    89  LEU89       0.1561
    126  C         -7.2410  -14.6660  -15.8660 C.2    89  LEU89       0.2260
    127  O         -7.0720  -13.5040  -16.3010 O.2    89  LEU89      -0.2867
    128  CB        -9.7240  -15.2090  -15.5620 C.3    89  LEU89       0.0270
    129  CG       -11.0400  -15.6880  -16.1820 C.3    89  LEU89       0.0019
    130  CD1      -12.1690  -15.3830  -15.1980 C.3    89  LEU89       0.0001
    131  CD2      -11.2660  -14.9720  -17.5050 C.3    89  LEU89       0.0001
    132  N         -5.0500  -14.2330  -18.8350 N.3    92  LEU92      -0.1231
    133  CA        -5.7060  -13.3520  -19.7820 C.3    92  LEU92       0.1693
    134  C         -5.4890  -11.8720  -19.3790 C.2    92  LEU92       0.2592
    135  O         -5.1640  -10.9970  -20.2030 O.2    92  LEU92      -0.2718
    136  CB        -7.2200  -13.7170  -19.7900 C.3    92  LEU92       0.0284
    137  CG        -8.0890  -12.7000  -20.5230 C.3    92  LEU92       0.0019
    138  CD1       -7.7610  -12.7130  -22.0150 C.3    92  LEU92       0.0001
    139  CD2       -9.5620  -13.0190  -20.3240 C.3    92  LEU92       0.0001
    140  N         -5.7350  -11.6400  -18.0870 N.am   93  HIS93      -0.1976
    141  CA        -5.6510  -10.2470  -17.5750 C.3    93  HIS93       0.1656
    142  C         -4.2320   -9.7150  -17.6570 C.2    93  HIS93       0.2291
    143  O         -4.0070   -8.5020  -17.8790 O.2    93  HIS93      -0.2864
    144  CB        -6.2390  -10.1730  -16.1480 C.3    93  HIS93       0.0771
    145  CG        -7.7390  -10.1310  -16.1550 C.ar   93  HIS93       0.0820
    146  ND1       -8.5490  -11.2470  -16.3090 N.ar   93  HIS93      -0.2267
    147  CD2       -8.5680   -9.0430  -16.0120 C.ar   93  HIS93       0.1154
    148  CE1       -9.8120  -10.8410  -16.2430 C.ar   93  HIS93       0.1986
    149  NE2       -9.8490   -9.5280  -16.0940 N.ar   93  HIS93      -0.2212
    150  N         -4.7500   -8.3540  -21.5810 N.3    97  LEU97      -0.1245
    151  CA        -5.3700   -7.0970  -21.1460 C.3    97  LEU97       0.1561
    152  C         -4.4270   -6.0830  -20.5140 C.2    97  LEU97       0.2260
    153  O         -4.8010   -4.9040  -20.5180 O.2    97  LEU97      -0.2867
    154  CB        -6.5970   -7.4330  -20.2610 C.3    97  LEU97       0.0270
    155  CG        -7.5960   -8.4170  -20.8650 C.3    97  LEU97       0.0019
    156  CD1       -8.7200   -8.7790  -19.8940 C.3    97  LEU97       0.0001
    157  CD2       -8.1680   -7.7940  -22.1330 C.3    97  LEU97       0.0001
    158  N         -3.7700   -5.5650  -17.3690 N.3    99  VAL99      -0.1245
    159  CA        -4.3860   -4.9030  -16.1980 C.3    99  VAL99       0.1561
    160  C         -3.5190   -5.0690  -14.9310 C.2    99  VAL99       0.2260
    161  O         -3.2680   -6.1800  -14.4460 O.2    99  VAL99      -0.2867
    162  CB        -5.8100   -5.4610  -15.9680 C.3    99  VAL99       0.0252
    163  CG1       -6.4210   -4.9810  -14.6600 C.3    99  VAL99       0.0019
    164  CG2       -6.6750   -5.2160  -17.2200 C.3    99  VAL99       0.0019
    165  N         -5.8030   -2.9830   -9.4690 N.3   103  ASN103     -0.1225
    166  CA        -7.2150   -2.7640   -9.8570 C.3   103  ASN103      0.1785
    167  C         -8.1310   -3.8330   -9.2470 C.2   103  ASN103      0.2597
    168  O         -9.3210   -3.5230   -8.9210 O.2   103  ASN103     -0.2718
    169  CB        -7.3180   -2.8180  -11.3850 C.3   103  ASN103      0.1169
    170  CG        -6.6800   -1.5810  -12.0190 C.2   103  ASN103      0.2627
    171  OD1       -5.6640   -1.7100  -12.7320 O.2   103  ASN103     -0.2716
    172  ND2       -7.2950   -0.4600  -11.7010 N.am  103  ASN103     -0.0877
    173  N         -7.6310   -5.0490   -9.0650 N.am  104  PHE104     -0.1976
    174  CA        -8.4610   -6.1310   -8.4510 C.3   104  PHE104      0.1639
    175  C         -8.7670   -5.7940   -6.9970 C.2   104  PHE104      0.2290
    176  O         -9.8830   -6.0670   -6.5070 O.2   104  PHE104     -0.2864
    177  CB        -7.8210   -7.5270   -8.5470 C.3   104  PHE104      0.0560
    178  CG        -7.4330   -7.8930   -9.9530 C.ar  104  PHE104     -0.0200
    179  CD1       -8.2670   -7.5990  -11.0290 C.ar  104  PHE104     -0.0042
    180  CD2       -6.2150   -8.5310  -10.1860 C.ar  104  PHE104     -0.0042
    181  CE1       -7.9140   -7.9170  -12.3300 C.ar  104  PHE104     -0.0003
    182  CE2       -5.8510   -8.8640  -11.4990 C.ar  104  PHE104     -0.0003
    183  CZ        -6.6880   -8.5500  -12.5730 C.ar  104  PHE104     -0.0000
    184  N        -11.3670   -2.8800   -6.8610 N.3   107  LEU107     -0.1231
    185  CA       -12.7280   -3.4100   -7.1080 C.3   107  LEU107      0.1693
    186  C        -13.2670   -4.1700   -5.9020 C.2   107  LEU107      0.2592
    187  O        -14.4470   -4.0590   -5.5680 O.2   107  LEU107     -0.2718
    188  CB       -12.7090   -4.2450   -8.4100 C.3   107  LEU107      0.0284
    189  CG       -14.1080   -4.8180   -8.7440 C.3   107  LEU107      0.0019
    190  CD1      -15.0610   -3.6810   -9.1010 C.3   107  LEU107      0.0001
    191  CD2      -13.9380   -5.8310   -9.8640 C.3   107  LEU107      0.0001
    192  N        -12.4180   -4.9770   -5.2900 N.am  108  GLY108     -0.1957
    193  CA       -12.8160   -5.7400   -4.0730 C.3   108  GLY108      0.1869
    194  C        -13.3220   -4.7490   -3.0150 C.2   108  GLY108      0.2309
    195  O        -14.3710   -4.9710   -2.3850 O.2   108  GLY108     -0.2863
    196  N         -9.6090  -13.5540   -3.9060 N.3   138  VAL138     -0.1245
    197  CA        -9.9110  -13.4360   -5.3340 C.3   138  VAL138      0.1561
    198  C         -8.8590  -12.5970   -6.0360 C.2   138  VAL138      0.2260
    199  O         -8.3270  -12.9740   -7.0920 O.2   138  VAL138     -0.2867
    200  CB       -11.3880  -12.9940   -5.5510 C.3   138  VAL138      0.0252
    201  CG1      -11.7080  -12.6840   -7.0160 C.3   138  VAL138      0.0019
    202  CG2      -12.3520  -14.0550   -5.0350 C.3   138  VAL138      0.0019
    203  N         -6.3000  -13.7780   -8.9580 N.3   142  LEU142     -0.1245
    204  CA        -6.1910  -13.1720  -10.2910 C.3   142  LEU142      0.1561
    205  C         -4.8150  -12.6520  -10.6360 C.2   142  LEU142      0.2260
    206  O         -4.4700  -12.5220  -11.8160 O.2   142  LEU142     -0.2867
    207  CB        -7.2860  -12.0750  -10.4220 C.3   142  LEU142      0.0270
    208  CG        -8.6430  -12.5900  -10.8780 C.3   142  LEU142      0.0019
    209  CD1       -9.6980  -11.5250  -10.6760 C.3   142  LEU142      0.0001
    210  CD2       -8.5690  -13.0270  -12.3400 C.3   142  LEU142      0.0001
@<TRIPOS>BOND
     1    50    47    1
     2    50    51    1
     3    49    48    2
     4    47    48    1
     5    47    46    1
     6    48    52   am
     7    52    53    1
     8    54    53    1
     9    54    55    2
    10    53    56    1
    11    58    60   ar
    12    58    57   ar
    13    60    62   ar
    14    56    57    1
    15   157   155    1
    16    38    37    2
    17    37    36    1
    18   138   137    1
    19    81    80    1
    20    57    59   ar
    21   150   151    1
    22    27    26    2
    23   151   152    1
    24   151   154    1
    25    36    35    1
    26    36    39    1
    27    62    61   ar
    28   155   154    1
    29   155   156    1
    30    80    79    1
    31   137   139    1
    32   137   136    1
    33    26    35   am
    34    26    25    1
    35   153   152    2
    36    59    61   ar
    37   135   134    2
    38    79    78    1
    39    39    40    1
    40   136   133    1
    41   133   134    1
    42   133   132    1
    43    25    24    1
    44    25    28    1
    45   134   140   am
    46    41    40   ar
    47    41    43   ar
    48    69    71   ar
    49    69    68   ar
    50    40    42   ar
    51    78    77    1
    52    63    64    1
    53    28    29    1
    54    71    72   ar
    55    67    68    1
    56    67    64    1
    57    43    45   ar
    58    30    29   ar
    59    30    32   ar
    60    68    70   ar
    61    64    65    1
    62   140   141    1
    63    77    74    1
    64   143   142    2
    65    29    31   ar
    66    72    70   ar
    67    32    34   ar
    68    42    44   ar
    69   142   141    1
    70   141   144    1
    71   131   129    1
    72   158   159    1
    73   164   162    1
    74    45    44   ar
    75    65    66    2
    76    74    73    1
    77    74    75    1
    78    31    33   ar
    79   124   125    1
    80   125   126    1
    81   125   128    1
    82    34    33   ar
    83   146   148   ar
    84   146   145   ar
    85   127   126    2
    86   148   149   ar
    87   159   162    1
    88   159   160    1
    89   129   128    1
    90   129   130    1
    91   145   144    1
    92   145   147   ar
    93   149   147   ar
    94   162   163    1
    95    20    19    2
    96    75    76    2
    97    75    82   am
    98     8     6    1
    99    19    18    1
   100    82    83    1
   101   160   161    2
   102    88    86    1
   103     6     7    1
   104     6     5    1
   105    83    86    1
   106    83    84    1
   107    18    17    1
   108    18    21    1
   109   101    98    1
   110    86    87    1
   111   116   115    2
   112     5     2    1
   113    97    98    1
   114    98    99    1
   115    21    22    1
   116    21    23    1
   117   171   170    2
   118    84    89   am
   119    84    85    2
   120   115   114    1
   121   183   181   ar
   122   183   182   ar
   123   210   208    1
   124   181   179   ar
   125    89    90    1
   126     4     3    2
   127   170   172   am
   128   170   169    1
   129     3     2    1
   130   114   113    1
   131   114   117    1
   132   206   205    2
   133     2     1    1
   134   182   180   ar
   135   169   166    1
   136    99   100    2
   137    99   102   am
   138   119   121   ar
   139   119   118   ar
   140    16    14    1
   141    91    90    1
   142    91    92    2
   143   179   178   ar
   144    90    93    1
   145   208   209    1
   146   208   207    1
   147   117   118    1
   148   121   123   ar
   149   102   103    1
   150   205   204    1
   151    11    12    2
   152    11    10    1
   153   207   204    1
   154    93    94    1
   155   118   120   ar
   156   204   203    1
   157    14    13    1
   158    14    15    1
   159   180   178   ar
   160    13    10    1
   161   178   177    1
   162   191   189    1
   163   166   165    1
   164   166   167    1
   165    10     9    1
   166   123   122   ar
   167    94    96    1
   168    94    95    1
   169   103   106    1
   170   103   104    1
   171   167   173   am
   172   167   168    2
   173   190   189    1
   174   173   174    1
   175   120   122   ar
   176   106   107    1
   177   189   188    1
   178   104   105    2
   179   177   174    1
   180   174   175    1
   181   188   185    1
   182   107   109   ar
   183   107   108   ar
   184   185   184    1
   185   185   186    1
   186   199   198    2
   187   201   200    1
   188   175   176    2
   189   109   111   ar
   190   108   110   ar
   191   198   197    1
   192   186   187    2
   193   186   192   am
   194   200   197    1
   195   200   202    1
   196   111   112   ar
   197   197   196    1
   198   192   193    1
   199   110   112   ar
   200   193   194    1
   201   194   195    2
