@<TRIPOS>MOLECULE
tmp/1dxwA00.pdb
 138 132 0 0 0
SMALL
GASTEIGER

@<TRIPOS>ATOM
      1  N         -7.4090    5.2110    4.6420 N.3    20  GLN20      -0.1231
      2  CA        -6.8380    6.4850    4.0740 C.3    20  GLN20       0.1698
      3  C         -7.4610    6.8380    2.7180 C.2    20  GLN20       0.2593
      4  O         -8.4320    6.2470    2.2880 O.2    20  GLN20      -0.2718
      5  CB        -5.3320    6.2270    3.9160 C.3    20  GLN20       0.0381
      6  CG        -5.1010    5.0100    3.0170 C.3    20  GLN20       0.0905
      7  CD        -3.6210    4.6240    3.0520 C.2    20  GLN20       0.2608
      8  OE1       -2.9970    4.6570    4.0940 O.2    20  GLN20      -0.2717
      9  NE2       -3.0270    4.2640    1.9470 N.am   20  GLN20      -0.0878
     10  N         -6.8800    7.8010    2.0410 N.am   21  SER21      -0.1938
     11  CA        -7.3890    8.2170    0.7020 C.3    21  SER21       0.2055
     12  C         -6.2640    8.1080   -0.3320 C.2    21  SER21       0.2643
     13  O         -5.1100    8.3550   -0.0340 O.2    21  SER21      -0.2714
     14  CB        -7.8260    9.6720    0.8740 C.3    21  SER21       0.2130
     15  OG        -8.9510    9.7250    1.7430 O.3    21  SER21      -0.2179
     16  N         -6.5910    7.7180   -1.5360 N.am   22  PHE22      -0.1973
     17  CA        -5.5430    7.5620   -2.5990 C.3    22  PHE22       0.1639
     18  C         -6.2020    7.5850   -3.9940 C.2    22  PHE22       0.2290
     19  O         -7.0530    8.4210   -4.2430 O.2    22  PHE22      -0.2864
     20  CB        -4.7970    6.2360   -2.2820 C.3    22  PHE22       0.0560
     21  CG        -5.7420    5.1280   -1.8480 C.ar   22  PHE22      -0.0200
     22  CD1       -6.1590    5.0640   -0.5150 C.ar   22  PHE22      -0.0042
     23  CD2       -6.1790    4.1610   -2.7600 C.ar   22  PHE22      -0.0042
     24  CE1       -7.0150    4.0440   -0.0890 C.ar   22  PHE22      -0.0003
     25  CE2       -7.0380    3.1360   -2.3340 C.ar   22  PHE22      -0.0003
     26  CZ        -7.4570    3.0790   -0.9950 C.ar   22  PHE22      -0.0000
     27  N         -4.8230    0.9070   -5.3270 N.3    34  VAL34      -0.1245
     28  CA        -3.7410    0.1660   -4.5820 C.3    34  VAL34       0.1561
     29  C         -4.2800   -0.5430   -3.3440 C.2    34  VAL34       0.2260
     30  O         -4.9810    0.0260   -2.5300 O.2    34  VAL34      -0.2867
     31  CB        -2.6700    1.1810   -4.1800 C.3    34  VAL34       0.0252
     32  CG1       -1.8660    1.5890   -5.4120 C.3    34  VAL34       0.0019
     33  CG2       -3.2970    2.4210   -3.5290 C.3    34  VAL34       0.0019
     34  N         -2.6660   -1.4710   -0.7290 N.3    36  HIS36      -0.1241
     35  CA        -2.1440   -0.8320    0.5170 C.3    36  HIS36       0.1621
     36  C         -2.7900    0.5410    0.6740 C.2    36  HIS36       0.2264
     37  O         -2.1620    1.5720    0.5440 O.2    36  HIS36      -0.2867
     38  CB        -0.6180   -0.7510    0.3770 C.3    36  HIS36       0.0745
     39  CG        -0.2120    0.0970   -0.8000 C.ar   36  HIS36       0.0817
     40  ND1       -0.0930   -0.4240   -2.0780 N.ar   36  HIS36      -0.2268
     41  CD2        0.1660    1.4140   -0.8990 C.ar   36  HIS36       0.1154
     42  CE1        0.3450    0.5650   -2.8770 C.ar   36  HIS36       0.1986
     43  NE2        0.5180    1.7030   -2.2110 N.ar   36  HIS36      -0.2212
     44  N         -0.5280   -6.8430   -4.5280 N.3    60  ASP60      -0.1239
     45  CA        -0.9910   -5.5810   -3.8710 C.3    60  ASP60       0.1674
     46  C         -1.8700   -4.7940   -4.8390 C.2    60  ASP60       0.2266
     47  O         -1.5890   -3.6560   -5.1670 O.2    60  ASP60      -0.2867
     48  CB         0.2760   -4.7920   -3.5150 C.3    60  ASP60       0.1410
     49  CG        -0.0810   -3.6660   -2.5430 C.2    60  ASP60       0.3668
     50  OD1       -0.7930   -2.7620   -2.9510 O.co2  60  ASP60      -0.2456
     51  OD2        0.3610   -3.7260   -1.4080 O.co2  60  ASP60      -0.2456
     52  N          8.3550   13.0630   -1.2580 N.3   111  VAL111     -0.1245
     53  CA         7.4380   11.8810   -1.1980 C.3   111  VAL111      0.1561
     54  C          6.1540   12.2220   -0.4260 C.2   111  VAL111      0.2260
     55  O          5.0980   11.6740   -0.6820 O.2   111  VAL111     -0.2867
     56  CB         8.2510   10.7960   -0.4830 C.3   111  VAL111      0.0252
     57  CG1        8.5730   11.2340    0.9500 C.3   111  VAL111      0.0019
     58  CG2        7.4460    9.4970   -0.4520 C.3   111  VAL111      0.0019
     59  N          3.5290   13.0000   -2.6050 N.3   114  LEU114     -0.1231
     60  CA         2.9840   11.8120   -3.3300 C.3   114  LEU114      0.1693
     61  C          2.1130   10.9530   -2.3970 C.2   114  LEU114      0.2592
     62  O          1.6540    9.8920   -2.7750 O.2   114  LEU114     -0.2718
     63  CB         4.2140   11.0260   -3.7790 C.3   114  LEU114      0.0284
     64  CG         4.9910   11.8430   -4.8100 C.3   114  LEU114      0.0019
     65  CD1        6.3180   11.1470   -5.1170 C.3   114  LEU114      0.0001
     66  CD2        4.1660   11.9590   -6.0940 C.3   114  LEU114      0.0001
     67  N          1.8750   11.4060   -1.1880 N.am  115  LYS115     -0.1966
     68  CA         1.0340   10.6290   -0.2400 C.3   115  LYS115      0.1728
     69  C         -0.3950   10.6270   -0.7580 C.2   115  LYS115      0.2616
     70  O         -1.0660   11.6420   -0.7930 O.2   115  LYS115     -0.2715
     71  CB         1.1260   11.3770    1.0930 C.3   115  LYS115      0.0311
     72  CG         2.5320   11.2150    1.6690 C.3   115  LYS115      0.0038
     73  CD         2.6610    9.8510    2.3520 C.3   115  LYS115      0.0206
     74  CE         4.0740    9.6990    2.9240 C.3   115  LYS115      0.1093
     75  NZ         4.8340    8.9470    1.8860 N.3   115  LYS115     -0.1314
     76  N         -0.8340    9.4950   -1.2000 N.am  116  GLY116     -0.1955
     77  CA        -2.2020    9.3810   -1.7830 C.3   116  GLY116      0.1869
     78  C         -2.1030    9.3620   -3.3100 C.2   116  GLY116      0.2309
     79  O         -3.0770    9.1170   -3.9970 O.2   116  GLY116     -0.2863
     80  N         -0.5580    7.1440   -4.8720 N.3   118  SER118     -0.1217
     81  CA        -0.5770    5.7010   -5.2400 C.3   118  SER118      0.1889
     82  C         -1.9920    5.3180   -5.6640 C.2   118  SER118      0.2288
     83  O         -2.9580    5.9040   -5.2110 O.2   118  SER118     -0.2866
     84  CB        -0.1540    4.9660   -3.9600 C.3   118  SER118      0.2089
     85  OG        -0.1150    5.8820   -2.8680 O.3   118  SER118     -0.2183
     86  N          0.4430    3.6690   -9.8520 N.3   133  PHE133     -0.1227
     87  CA         1.4890    3.8960   -8.8040 C.3   133  PHE133      0.1736
     88  C          1.2320    3.0710   -7.5330 C.2   133  PHE133      0.2595
     89  O          0.1480    3.0660   -6.9840 O.2   133  PHE133     -0.2718
     90  CB         1.4400    5.4000   -8.5090 C.3   133  PHE133      0.0547
     91  CG         2.5890    5.7760   -7.6060 C.ar  133  PHE133     -0.0202
     92  CD1        3.8820    5.3350   -7.9070 C.ar  133  PHE133     -0.0042
     93  CD2        2.3650    6.5580   -6.4650 C.ar  133  PHE133     -0.0042
     94  CE1        4.9430    5.6700   -7.0710 C.ar  133  PHE133     -0.0003
     95  CE2        3.4290    6.8940   -5.6320 C.ar  133  PHE133     -0.0003
     96  CZ         4.7140    6.4500   -5.9330 C.ar  133  PHE133     -0.0000
     97  N          2.2420    2.3600   -7.0840 N.am  134  ARG134     -0.1966
     98  CA         2.1090    1.5070   -5.8740 C.3   134  ARG134      0.1729
     99  C          3.0450    1.9730   -4.7490 C.2   134  ARG134      0.2616
    100  O          2.7470    1.7890   -3.5830 O.2   134  ARG134     -0.2715
    101  CB         2.5040    0.1120   -6.3720 C.3   134  ARG134      0.0348
    102  CG         2.5510   -0.8740   -5.2050 C.3   134  ARG134      0.0492
    103  CD         2.9450   -2.2600   -5.7120 C.3   134  ARG134      0.2205
    104  NE         2.8530   -3.1390   -4.5130 N.pl3 134  ARG134     -0.0865
    105  CZ         3.7560   -4.0550   -4.3050 C.cat 134  ARG134      0.5346
    106  NH1        3.7680   -5.1360   -5.0370 N.pl3 134  ARG134      0.1354
    107  NH2        4.6480   -3.8920   -3.3660 N.pl3 134  ARG134      0.1354
    108  N          4.1750    2.5480   -5.0790 N.am  135  ALA135     -0.1963
    109  CA         5.1160    2.9820   -4.0030 C.3   135  ALA135      0.1728
    110  C          6.1340    3.9960   -4.5220 C.2   135  ALA135      0.2616
    111  O          6.5490    3.9620   -5.6620 O.2   135  ALA135     -0.2715
    112  CB         5.8250    1.7030   -3.5600 C.3   135  ALA135      0.0334
    113  N          6.5200    4.9070   -3.6720 N.am  136  ALA136     -0.1963
    114  CA         7.4910    5.9650   -4.0610 C.3   136  ALA136      0.1728
    115  C          8.9080    5.6390   -3.5800 C.2   136  ALA136      0.2616
    116  O          9.1100    5.2060   -2.4620 O.2   136  ALA136     -0.2715
    117  CB         6.9550    7.2120   -3.3590 C.3   136  ALA136      0.0334
    118  N          9.8930    5.8780   -4.4100 N.am  137  VAL137     -0.1963
    119  CA        11.3090    5.6190   -4.0000 C.3   137  VAL137      0.1727
    120  C         11.8930    6.9230   -3.4980 C.2   137  VAL137      0.2616
    121  O         12.4210    7.7010   -4.2690 O.2   137  VAL137     -0.2715
    122  CB        12.0550    5.1910   -5.2640 C.3   137  VAL137      0.0290
    123  CG1       13.4910    4.8070   -4.9050 C.3   137  VAL137      0.0023
    124  CG2       11.3570    3.9980   -5.8900 C.3   137  VAL137      0.0023
    125  N         11.7850    7.1770   -2.2270 N.am  138  CYS138     -0.1968
    126  CA        12.2990    8.4620   -1.6920 C.3   138  CYS138      0.1712
    127  C         13.7250    8.3360   -1.1680 C.2   138  CYS138      0.2296
    128  O         14.0250    7.5460   -0.2930 O.2   138  CYS138     -0.2864
    129  CB        11.3250    8.8710   -0.5740 C.3   138  CYS138      0.0983
    130  SG        11.3170    7.6400    0.7580 S.3   138  CYS138     -0.0798
    131  N          7.2120    3.1960   -8.2110 N.3   147  ASP147     -0.1239
    132  CA         6.9150    1.7520   -8.4330 C.3   147  ASP147      0.1674
    133  C          5.4150    1.6510   -8.6970 C.2   147  ASP147      0.2266
    134  O          4.6540    2.4410   -8.1670 O.2   147  ASP147     -0.2867
    135  CB         7.2950    1.0450   -7.1280 C.3   147  ASP147      0.1410
    136  CG         8.8200    1.0490   -6.9550 C.2   147  ASP147      0.3668
    137  OD1        9.5180    1.1680   -7.9500 O.co2 147  ASP147     -0.2456
    138  OD2        9.2650    0.9290   -5.8250 O.co2 147  ASP147     -0.2456
@<TRIPOS>BOND
     1    86    87    1
     2    87    90    1
     3    87    88    1
     4   133   132    1
     5   133   134    2
     6    90    91    1
     7   132   131    1
     8   132   135    1
     9   137   136   ar
    10    92    91   ar
    11    92    94   ar
    12    91    93   ar
    13    88    97   am
    14    88    89    2
    15   135   136    1
    16    97    98    1
    17    94    96   ar
    18   136   138   ar
    19    93    95   ar
    20   101    98    1
    21   101   102    1
    22    66    64    1
    23    96    95   ar
    24   124   122    1
    25    98    99    1
    26   103   102    1
    27   103   104    1
    28    82    81    1
    29    82    83    2
    30   111   110    2
    31    32    31    1
    32    27    28    1
    33   122   123    1
    34   122   119    1
    35    81    80    1
    36    81    84    1
    37    47    46    2
    38    65    64    1
    39   108    99   am
    40   108   109    1
    41   106   105    1
    42    46    45    1
    43    64    63    1
    44    99   100    2
    45    28    31    1
    46    28    29    1
    47    44    45    1
    48   110   109    1
    49   110   113   am
    50   104   105    2
    51   118   119    1
    52   118   115   am
    53   105   107    1
    54   121   120    2
    55    19    18    2
    56    31    33    1
    57   114   113    1
    58   114   115    1
    59   114   117    1
    60   109   112    1
    61   119   120    1
    62    79    78    2
    63    18    17    1
    64    84    85    1
    65    45    48    1
    66    63    60    1
    67   115   116    2
    68    48    49    1
    69   120   125   am
    70    29    30    2
    71    60    59    1
    72    60    61    1
    73    78    77    1
    74    50    49   ar
    75    42    43   ar
    76    42    40   ar
    77    62    61    2
    78    23    25   ar
    79    23    21   ar
    80    17    20    1
    81    17    16    1
    82    49    51   ar
    83    61    67   am
    84    25    26   ar
    85    20    21    1
    86   125   126    1
    87    43    41   ar
    88    40    39   ar
    89    21    22   ar
    90    77    76    1
    91   126   127    1
    92   126   129    1
    93    16    12   am
    94    52    53    1
    95    76    69   am
    96    53    56    1
    97    53    54    1
    98    67    68    1
    99   127   128    2
   100    26    24   ar
   101    41    39   ar
   102    39    38    1
   103    70    69    2
   104    69    68    1
   105    34    35    1
   106    55    54    2
   107   129   130    1
   108    22    24   ar
   109    56    58    1
   110    56    57    1
   111    12    13    2
   112    12    11    1
   113    68    71    1
   114    38    35    1
   115    35    36    1
   116    37    36    2
   117    11    14    1
   118    11    10    1
   119    14    15    1
   120    71    72    1
   121    72    73    1
   122    75    74    1
   123     9     7   am
   124    10     3   am
   125     4     3    2
   126    73    74    1
   127     3     2    1
   128     6     7    1
   129     6     5    1
   130     7     8    2
   131     5     2    1
   132     2     1    1
