@<TRIPOS>MOLECULE
tmp/1dxyA01.pdb
 98 92 0 0 0
SMALL
GASTEIGER

@<TRIPOS>ATOM
      1  N         83.8600   69.5110  -11.4000 N.3     9  ARG9       -0.1245
      2  CA        84.8420   69.4130  -12.4790 C.3     9  ARG9        0.1563
      3  C         84.3780   70.1950  -13.7020 C.2     9  ARG9        0.2260
      4  O         83.1810   70.4350  -13.8770 O.2     9  ARG9       -0.2867
      5  CB        85.0740   67.9600  -12.8440 C.3     9  ARG9        0.0307
      6  CG        85.5320   67.1440  -11.6920 C.3     9  ARG9        0.0489
      7  CD        85.6600   65.7250  -12.1060 C.3     9  ARG9        0.2205
      8  NE        86.4350   64.9530  -11.1410 N.pl3   9  ARG9       -0.0865
      9  CZ        86.7540   63.6680  -11.2870 C.cat   9  ARG9        0.5346
     10  NH1       86.3640   62.9930  -12.3680 N.pl3   9  ARG9        0.1354
     11  NH2       87.4620   63.0500  -10.3440 N.pl3   9  ARG9        0.1354
     12  N         82.5260   64.8630   -4.9580 N.3    51  LEU51      -0.1245
     13  CA        83.2690   63.8980   -5.7490 C.3    51  LEU51       0.1561
     14  C         84.7400   64.1990   -5.4710 C.2    51  LEU51       0.2260
     15  O         85.2230   65.2870   -5.8050 O.2    51  LEU51      -0.2867
     16  CB        82.9680   64.0780   -7.2460 C.3    51  LEU51       0.0270
     17  CG        83.7930   63.2430   -8.2350 C.3    51  LEU51       0.0019
     18  CD1       83.6940   61.7780   -7.9160 C.3    51  LEU51       0.0001
     19  CD2       83.3220   63.5140   -9.6610 C.3    51  LEU51       0.0001
     20  N         88.8280   62.0830   -4.2910 N.3    53  THR53      -0.1218
     21  CA        89.5600   60.9120   -3.8350 C.3    53  THR53       0.1862
     22  C         90.2180   61.2490   -2.4900 C.2    53  THR53       0.2287
     23  O         90.6980   60.3530   -1.7980 O.2    53  THR53      -0.2866
     24  CB        90.6170   60.4450   -4.8540 C.3    53  THR53       0.1770
     25  OG1       91.4110   61.5660   -5.2710 O.3    53  THR53      -0.2211
     26  CG2       89.9310   59.8100   -6.0660 C.3    53  THR53       0.0375
     27  N         80.4200   59.4520   -7.4150 N.3    76  ASN76      -0.1225
     28  CA        81.1300   58.2790   -7.8990 C.3    76  ASN76       0.1785
     29  C         80.7260   57.0170   -7.1590 C.2    76  ASN76       0.2597
     30  O         79.7090   57.0030   -6.4600 O.2    76  ASN76      -0.2718
     31  CB        82.6420   58.5090   -7.8460 C.3    76  ASN76       0.1169
     32  CG        83.1520   58.7890   -6.4410 C.2    76  ASN76       0.2627
     33  OD1       82.5760   59.5870   -5.6900 O.2    76  ASN76      -0.2716
     34  ND2       84.2390   58.1420   -6.0830 N.am   76  ASN76      -0.0877
     35  N         81.4950   55.9500   -7.3190 N.am   77  VAL77      -0.1966
     36  CA        81.1720   54.6810   -6.6840 C.3    77  VAL77       0.1727
     37  C         81.8780   54.4240   -5.3440 C.2    77  VAL77       0.2616
     38  O         81.2240   54.0540   -4.3640 O.2    77  VAL77      -0.2715
     39  CB        81.4850   53.4810   -7.6290 C.3    77  VAL77       0.0290
     40  CG1       80.9610   52.1810   -7.0410 C.3    77  VAL77       0.0023
     41  CG2       80.8630   53.7150   -8.9870 C.3    77  VAL77       0.0023
     42  N         83.2000   54.5780   -5.3180 N.am   78  GLY78      -0.1955
     43  CA        83.9930   54.3060   -4.1240 C.3    78  GLY78       0.1869
     44  C         83.7280   55.0860   -2.8460 C.2    78  GLY78       0.2309
     45  O         83.5290   56.3030   -2.8670 O.2    78  GLY78      -0.2863
     46  N         76.5670   54.8920  -13.0110 N.3   100  TYR100     -0.1241
     47  CA        76.2990   56.0900  -13.7980 C.3   100  TYR100      0.1605
     48  C         76.2880   55.7550  -15.2930 C.2   100  TYR100      0.2264
     49  O         75.4320   56.2440  -16.0290 O.2   100  TYR100     -0.2867
     50  CB        77.2590   57.2280  -13.4700 C.3   100  TYR100      0.0534
     51  CG        78.6650   56.7990  -13.2020 C.ar  100  TYR100     -0.0201
     52  CD1       79.5780   56.6350  -14.2470 C.ar  100  TYR100     -0.0009
     53  CD2       79.1070   56.6030  -11.8980 C.ar  100  TYR100     -0.0009
     54  CE1       80.9020   56.2910  -13.9910 C.ar  100  TYR100      0.0417
     55  CE2       80.4240   56.2630  -11.6250 C.ar  100  TYR100      0.0417
     56  CZ        81.3180   56.1100  -12.6700 C.ar  100  TYR100      0.1957
     57  OH        82.6280   55.7940  -12.4090 O.3   100  TYR100     -0.2866
     58  N         90.3780   48.0910  -11.9070 N.3   234  ARG234     -0.1245
     59  CA        91.1100   48.6060  -10.7540 C.3   234  ARG234      0.1563
     60  C         92.6090   48.3950  -10.9050 C.2   234  ARG234      0.2260
     61  O         93.0380   47.3960  -11.4860 O.2   234  ARG234     -0.2867
     62  CB        90.5950   47.9040   -9.5040 C.3   234  ARG234      0.0307
     63  CG        89.2210   48.3680   -9.1030 C.3   234  ARG234      0.0489
     64  CD        89.2710   49.8490   -8.7780 C.3   234  ARG234      0.2205
     65  NE        87.9540   50.3730   -8.4370 N.pl3 234  ARG234     -0.0865
     66  CZ        87.4780   51.5530   -8.8450 C.cat 234  ARG234      0.5346
     67  NH1       88.2130   52.3490   -9.6280 N.pl3 234  ARG234      0.1354
     68  NH2       86.2630   51.9490   -8.4560 N.pl3 234  ARG234      0.1354
     69  N         92.9320   56.7360  -16.6470 N.3   295  HIS295     -0.1241
     70  CA        91.7080   56.4680  -15.9020 C.3   295  HIS295      0.1621
     71  C         90.5090   57.2250  -16.4670 C.2   295  HIS295      0.2264
     72  O         89.8220   57.9520  -15.7340 O.2   295  HIS295     -0.2867
     73  CB        91.9210   56.8510  -14.4230 C.3   295  HIS295      0.0745
     74  CG        91.0510   56.0940  -13.4670 C.ar  295  HIS295      0.0817
     75  ND1       91.5380   55.5250  -12.3090 N.ar  295  HIS295     -0.2268
     76  CD2       89.7300   55.8020  -13.5000 C.ar  295  HIS295      0.1154
     77  CE1       90.5550   54.9130  -11.6720 C.ar  295  HIS295      0.1986
     78  NE2       89.4460   55.0670  -12.3740 N.ar  295  HIS295     -0.2212
     79  N         85.3770   55.8230  -17.8020 N.3   298  TYR298     -0.1241
     80  CA        84.0500   56.3150  -17.4500 C.3   298  TYR298      0.1605
     81  C         83.7170   57.6160  -18.1610 C.2   298  TYR298      0.2264
     82  O         82.5820   58.0760  -18.1520 O.2   298  TYR298     -0.2867
     83  CB        84.0340   56.6630  -15.9450 C.3   298  TYR298      0.0534
     84  CG        84.6690   58.0320  -15.6440 C.ar  298  TYR298     -0.0201
     85  CD1       86.0530   58.1910  -15.5850 C.ar  298  TYR298     -0.0009
     86  CD2       83.8730   59.1790  -15.5170 C.ar  298  TYR298     -0.0009
     87  CE1       86.6230   59.4570  -15.4210 C.ar  298  TYR298      0.0417
     88  CE2       84.4260   60.4330  -15.3540 C.ar  298  TYR298      0.0417
     89  CZ        85.7970   60.5660  -15.3130 C.ar  298  TYR298      0.1957
     90  OH        86.3300   61.8240  -15.2230 O.3   298  TYR298     -0.2866
     91  N         76.3480   61.1560  -13.4600 N.3   307  MET307     -0.1245
     92  CA        77.0010   61.3130  -12.1740 C.3   307  MET307      0.1570
     93  C         76.3450   62.4920  -11.4780 C.2   307  MET307      0.2261
     94  O         75.9760   62.3990  -10.3130 O.2   307  MET307     -0.2867
     95  CB        78.4790   61.5870  -12.3720 C.3   307  MET307      0.0387
     96  CG        79.2350   60.3420  -12.7340 C.3   307  MET307      0.0595
     97  SD        80.9430   60.6560  -13.1600 S.3   307  MET307     -0.1393
     98  CE        81.8230   60.1930  -11.6330 C.3   307  MET307      0.0692
@<TRIPOS>BOND
     1    81    82    2
     2    81    80    1
     3    79    80    1
     4    80    83    1
     5    69    70    1
     6    71    70    1
     7    71    72    2
     8    49    48    2
     9    83    84    1
    10    70    73    1
    11    84    85   ar
    12    84    86   ar
    13    85    87   ar
    14    86    88   ar
    15    87    89   ar
    16    88    89   ar
    17    89    90    1
    18    48    47    1
    19    73    74    1
    20    52    54   ar
    21    52    51   ar
    22    54    56   ar
    23     4     3    2
    24    47    50    1
    25    47    46    1
    26     3     2    1
    27    76    74   ar
    28    76    78   ar
    29    50    51    1
    30    74    75   ar
    31    91    92    1
    32    51    53   ar
    33    97    96    1
    34    97    98    1
    35     5     2    1
    36     5     6    1
    37    96    95    1
    38    56    57    1
    39    56    55   ar
    40     2     1    1
    41    78    77   ar
    42    95    92    1
    43    10     9    1
    44    75    77   ar
    45    92    93    1
    46     7     6    1
    47     7     8    1
    48    58    59    1
    49    53    55   ar
    50    61    60    2
    51    93    94    2
    52     9     8    2
    53     9    11    1
    54    60    59    1
    55    59    62    1
    56    19    17    1
    57    67    66    1
    58    62    63    1
    59    63    64    1
    60    41    39    1
    61    66    68    1
    62    66    65    2
    63    64    65    1
    64    17    18    1
    65    17    16    1
    66    28    31    1
    67    28    27    1
    68    28    29    1
    69    31    32    1
    70    39    40    1
    71    39    36    1
    72    35    29   am
    73    35    36    1
    74    16    13    1
    75    29    30    2
    76    36    37    1
    77    32    34   am
    78    32    33    2
    79    26    24    1
    80    15    14    2
    81    13    14    1
    82    13    12    1
    83    37    42   am
    84    37    38    2
    85    42    43    1
    86    25    24    1
    87    24    21    1
    88    20    21    1
    89    43    44    1
    90    21    22    1
    91    45    44    2
    92    22    23    2
