@<TRIPOS>MOLECULE
tmp/1dy3A01.pdb
 156 152 0 0 0
SMALL
GASTEIGER

@<TRIPOS>ATOM
      1  N         21.9320   34.7180   12.9920 N.3     8  GLY8       -0.1225
      2  CA        20.4690   34.6400   13.0820 C.3     8  GLY8        0.1811
      3  C         19.8890   36.0200   12.7370 C.2     8  GLY8        0.2280
      4  O         20.4850   37.0360   13.0920 O.2     8  GLY8       -0.2866
      5  N         13.9070   28.8540    9.9020 N.3    42  THR42      -0.1204
      6  CA        13.5280   28.0950   11.0740 C.3    42  THR42       0.1979
      7  C         12.4710   28.7940   11.9090 C.2    42  THR42       0.2460
      8  O         12.4690   30.0010   12.0420 O.2    42  THR42      -0.2732
      9  CB        14.7740   27.8230   11.9580 C.3    42  THR42       0.1783
     10  OG1       15.3130   29.0540   12.4620 O.3    42  THR42      -0.2211
     11  CG2       15.8900   27.1080   11.1790 C.3    42  THR42       0.0376
     12  N         11.5360   28.0330   12.4740 N.am   43  PRO43      -0.2718
     13  CA        10.5130   28.5880   13.3440 C.3    43  PRO43       0.1520
     14  C         11.1920   29.0030   14.6220 C.2    43  PRO43       0.2440
     15  O         12.1770   28.3600   15.0250 O.2    43  PRO43      -0.2731
     16  CB         9.5150   27.4710   13.5000 C.3    43  PRO43       0.0310
     17  CG        10.3170   26.2220   13.3280 C.3    43  PRO43       0.0237
     18  CD        11.4480   26.5580   12.3740 C.3    43  PRO43       0.0939
     19  N         10.7420   30.0430   15.3020 N.am   44  PRO44      -0.2716
     20  CA        11.3770   30.4830   16.5100 C.3    44  PRO44       0.1536
     21  C         11.3690   29.4320   17.6030 C.2    44  PRO44       0.2598
     22  O         10.3260   28.7870   17.8160 O.2    44  PRO44      -0.2715
     23  CB        10.5900   31.7090   16.9470 C.3    44  PRO44       0.0310
     24  CG         9.3170   31.6620   16.1710 C.3    44  PRO44       0.0237
     25  CD         9.5880   30.8790   14.9060 C.3    44  PRO44       0.0939
     26  N         12.4690   29.2910   18.3090 N.am   45  LEU45      -0.1964
     27  CA        12.5710   28.4190   19.4760 C.3    45  LEU45       0.1728
     28  C         12.4310   29.3600   20.6750 C.2    45  LEU45       0.2617
     29  O         12.9930   30.4620   20.5470 O.2    45  LEU45      -0.2715
     30  CB        13.8580   27.6430   19.5110 C.3    45  LEU45       0.0311
     31  CG        14.1530   26.6700   20.6390 C.3    45  LEU45       0.0022
     32  CD1       13.0950   25.5810   20.7320 C.3    45  LEU45       0.0001
     33  CD2       15.5390   26.0370   20.4520 C.3    45  LEU45       0.0001
     34  N         11.7260   29.0120   21.7310 N.am   46  GLY46      -0.1941
     35  CA        11.6320   30.0170   22.8590 C.3    46  GLY46       0.1998
     36  C         10.3300   30.7740   22.6010 C.2    46  GLY46       0.2480
     37  O          9.3350   30.1470   22.1990 O.2    46  GLY46      -0.2729
     38  N         10.3300   32.0700   22.7730 N.am   47  PRO47      -0.2726
     39  CA         9.1340   32.8780   22.5070 C.3    47  PRO47       0.1402
     40  C          8.6610   32.6510   21.0830 C.2    47  PRO47       0.2269
     41  O          9.4210   32.8390   20.1300 O.2    47  PRO47      -0.2865
     42  CB         9.5480   34.2870   22.8360 C.3    47  PRO47       0.0296
     43  CG        10.7240   34.1340   23.7580 C.3    47  PRO47       0.0237
     44  CD        11.4510   32.9080   23.2330 C.3    47  PRO47       0.0939
     45  N          7.0350   35.6700   17.2030 N.3    50  GLN50      -0.1245
     46  CA         7.9970   36.4840   16.4220 C.3    50  GLN50       0.1566
     47  C          8.1870   35.7800   15.0990 C.2    50  GLN50       0.2260
     48  O          7.8150   34.6070   14.9570 O.2    50  GLN50      -0.2867
     49  CB         9.2660   36.6900   17.2430 C.3    50  GLN50       0.0367
     50  CG         9.9560   35.3660   17.5640 C.3    50  GLN50       0.0905
     51  CD        11.2450   35.5830   18.3410 C.2    50  GLN50       0.2608
     52  OE1       12.1010   36.3370   17.8900 O.2    50  GLN50      -0.2717
     53  NE2       11.3480   34.9180   19.4870 N.am   50  GLN50      -0.0878
     54  N         13.0740   32.7140   11.5300 N.3    53  TYR53      -0.1241
     55  CA        14.4510   33.1130   11.3880 C.3    53  TYR53       0.1605
     56  C         15.1770   32.5780   10.1690 C.2    53  TYR53       0.2264
     57  O         14.8300   31.5450    9.6130 O.2    53  TYR53      -0.2867
     58  CB        15.2410   32.5780   12.6190 C.3    53  TYR53       0.0534
     59  CG        15.0730   33.3960   13.8790 C.ar   53  TYR53      -0.0201
     60  CD1       13.9600   33.2840   14.6940 C.ar   53  TYR53      -0.0009
     61  CD2       16.1080   34.2650   14.2500 C.ar   53  TYR53      -0.0009
     62  CE1       13.8430   34.0700   15.8410 C.ar   53  TYR53       0.0417
     63  CE2       16.0050   35.0300   15.4130 C.ar   53  TYR53       0.0417
     64  CZ        14.8730   34.9350   16.1790 C.ar   53  TYR53       0.1957
     65  OH        14.7710   35.7060   17.3100 O.3    53  TYR53      -0.2866
     66  N         18.8160   31.3260    9.5440 N.3    55  ASN55      -0.1240
     67  CA        19.9470   30.8990   10.3610 C.3    55  ASN55       0.1653
     68  C         21.0340   30.3250    9.4490 C.2    55  ASN55       0.2266
     69  O         20.7230   29.6620    8.4670 O.2    55  ASN55      -0.2867
     70  CB        19.5680   29.8590   11.4150 C.3    55  ASN55       0.1155
     71  CG        18.8660   30.4140   12.6270 C.2    55  ASN55       0.2627
     72  OD1       17.7240   30.0710   12.9450 O.2    55  ASN55      -0.2716
     73  ND2       19.5680   31.2890   13.3630 N.am   55  ASN55      -0.0877
     74  N         15.2620   37.2340   24.4850 N.3    89  TRP89      -0.1241
     75  CA        14.9520   36.4040   23.3150 C.3    89  TRP89       0.1605
     76  C         13.8740   36.8750   22.3850 C.2    89  TRP89       0.2264
     77  O         13.0840   36.0590   21.8980 O.2    89  TRP89      -0.2867
     78  CB        14.5890   35.0000   23.9040 C.3    89  TRP89       0.0550
     79  CG        15.7610   34.4970   24.7160 C.ar   89  TRP89       0.0003
     80  CD1       17.0630   34.4430   24.2890 C.ar   89  TRP89       0.0946
     81  CD2       15.7210   33.8180   25.9710 C.ar   89  TRP89       0.0152
     82  NE1       17.8480   33.8580   25.2570 N.ar   89  TRP89      -0.2442
     83  CE2       17.0400   33.4430   26.2850 C.ar   89  TRP89       0.0810
     84  CE3       14.6930   33.5120   26.8650 C.ar   89  TRP89       0.0012
     85  CZ2       17.3690   32.7870   27.4730 C.ar   89  TRP89       0.0191
     86  CZ3       15.0170   32.8540   28.0490 C.ar   89  TRP89       0.0001
     87  CH2       16.3420   32.5090   28.3410 C.ar   89  TRP89       0.0015
     88  N         15.2280   40.1380   16.3140 N.3    92  ARG92      -0.1245
     89  CA        16.4230   40.9880   16.1440 C.3    92  ARG92       0.1563
     90  C         16.8280   41.0480   14.6970 C.2    92  ARG92       0.2260
     91  O         16.5930   40.1160   13.9110 O.2    92  ARG92      -0.2867
     92  CB        17.5890   40.4810   17.0060 C.3    92  ARG92       0.0307
     93  CG        18.2630   39.1990   16.5420 C.3    92  ARG92       0.0489
     94  CD        17.3490   37.9720   16.7300 C.3    92  ARG92       0.2205
     95  NE        17.0460   37.8700   18.1490 N.pl3  92  ARG92      -0.0865
     96  CZ        17.7710   37.3620   19.1300 C.cat  92  ARG92       0.5346
     97  NH1       18.8950   36.6910   18.9000 N.pl3  92  ARG92       0.1354
     98  NH2       17.3240   37.4760   20.3830 N.pl3  92  ARG92       0.1354
     99  N         22.0490   38.6890   14.7640 N.3    95  ASP95      -0.1239
    100  CA        22.5960   38.0620   15.9410 C.3    95  ASP95       0.1674
    101  C         23.8410   37.2780   15.5330 C.2    95  ASP95       0.2266
    102  O         23.7160   36.3900   14.6870 O.2    95  ASP95      -0.2867
    103  CB        21.5380   37.1530   16.5580 C.3    95  ASP95       0.1410
    104  CG        22.0380   36.5370   17.8370 C.2    95  ASP95       0.3668
    105  OD1       22.5900   37.3100   18.6290 O.co2  95  ASP95      -0.2456
    106  OD2       21.9020   35.3380   18.0320 O.co2  95  ASP95      -0.2456
    107  N         26.7540   35.0060   17.1260 N.3    97  ASP97      -0.1239
    108  CA        27.2230   34.2930   18.2670 C.3    97  ASP97       0.1674
    109  C         28.5200   33.5200   17.9990 C.2    97  ASP97       0.2266
    110  O         28.5440   32.8420   16.9730 O.2    97  ASP97      -0.2867
    111  CB        26.2640   33.1780   18.7440 C.3    97  ASP97       0.1410
    112  CG        25.0450   33.7650   19.4100 C.2    97  ASP97       0.3668
    113  OD1       24.9880   34.9760   19.3850 O.co2  97  ASP97      -0.2456
    114  OD2       24.2150   33.0790   19.9570 O.co2  97  ASP97      -0.2456
    115  N         26.7890   28.4700   25.4220 N.3   116  TYR116     -0.1227
    116  CA        26.1450   27.7460   26.5030 C.3   116  TYR116      0.1736
    117  C         24.9470   26.9020   26.1300 C.2   116  TYR116      0.2595
    118  O         24.6980   25.9590   26.9170 O.2   116  TYR116     -0.2718
    119  CB        25.6760   28.7500   27.5990 C.3   116  TYR116      0.0548
    120  CG        24.3740   29.4490   27.2770 C.ar  116  TYR116     -0.0200
    121  CD1       24.2790   30.4440   26.3270 C.ar  116  TYR116     -0.0009
    122  CD2       23.2200   29.1040   28.0050 C.ar  116  TYR116     -0.0009
    123  CE1       23.0750   31.0790   26.0660 C.ar  116  TYR116      0.0417
    124  CE2       22.0110   29.7370   27.7480 C.ar  116  TYR116      0.0417
    125  CZ        21.9460   30.7120   26.7900 C.ar  116  TYR116      0.1957
    126  OH        20.7530   31.3390   26.5320 O.3   116  TYR116     -0.2866
    127  N         24.2190   27.1340   25.0660 N.am  117  ASP117     -0.1974
    128  CA        23.0410   26.3190   24.7890 C.3   117  ASP117      0.1709
    129  C         23.0430   25.6600   23.4390 C.2   117  ASP117      0.2293
    130  O         22.0390   25.0780   23.0280 O.2   117  ASP117     -0.2864
    131  CB        21.8180   27.2770   24.8920 C.3   117  ASP117      0.1436
    132  CG        20.5040   26.5440   25.0610 C.2   117  ASP117      0.3671
    133  OD1       20.4710   25.5650   25.8450 O.co2 117  ASP117     -0.2456
    134  OD2       19.4940   26.9460   24.4490 O.co2 117  ASP117     -0.2456
    135  N         20.1540   23.3660   20.4040 N.3   121  ARG121     -0.1245
    136  CA        19.5370   24.1240   19.3270 C.3   121  ARG121      0.1563
    137  C         19.8200   23.5770   17.9490 C.2   121  ARG121      0.2260
    138  O         20.9130   23.7420   17.3830 O.2   121  ARG121     -0.2867
    139  CB        20.0430   25.5880   19.3850 C.3   121  ARG121      0.0307
    140  CG        19.7800   26.2500   20.7400 C.3   121  ARG121      0.0489
    141  CD        20.2270   27.6990   20.7610 C.3   121  ARG121      0.2205
    142  NE        19.9850   28.3020   22.0830 N.pl3 121  ARG121     -0.0865
    143  CZ        20.2090   29.5980   22.3210 C.cat 121  ARG121      0.5346
    144  NH1       20.6610   30.3880   21.3520 N.pl3 121  ARG121      0.1354
    145  NH2       19.9930   30.0840   23.5420 N.pl3 121  ARG121      0.1354
    146  N         18.8950   24.7290   15.2010 N.3   123  PHE123     -0.1241
    147  CA        19.1980   25.8030   14.2350 C.3   123  PHE123      0.1605
    148  C         20.6570   26.2290   14.3090 C.2   123  PHE123      0.2264
    149  O         21.1170   26.9560   13.4070 O.2   123  PHE123     -0.2867
    150  CB        18.2640   27.0090   14.4210 C.3   123  PHE123      0.0534
    151  CG        18.3400   27.6900   15.7720 C.ar  123  PHE123     -0.0203
    152  CD1       19.3240   28.6150   16.0330 C.ar  123  PHE123     -0.0042
    153  CD2       17.3840   27.4450   16.7410 C.ar  123  PHE123     -0.0042
    154  CE1       19.3980   29.2570   17.2650 C.ar  123  PHE123     -0.0003
    155  CE2       17.4340   28.0860   17.9680 C.ar  123  PHE123     -0.0003
    156  CZ        18.4420   28.9840   18.2230 C.ar  123  PHE123     -0.0000
@<TRIPOS>BOND
     1    69    68    2
     2    68    67    1
     3    66    67    1
     4    57    56    2
     5     5     6    1
     6    56    55    1
     7    67    70    1
     8     6     7    1
     9     6     9    1
    10    11     9    1
    11    55    54    1
    12    55    58    1
    13    70    71    1
    14     7     8    2
    15     7    12   am
    16     9    10    1
    17    18    12    1
    18    18    17    1
    19    12    13    1
    20    58    59    1
    21    71    72    2
    22    71    73   am
    23     3     2    1
    24     3     4    2
    25     1     2    1
    26    17    16    1
    27    13    16    1
    28    13    14    1
    29   149   148    2
    30    59    61   ar
    31    59    60   ar
    32    91    90    2
    33   147   148    1
    34   147   150    1
    35   147   146    1
    36    61    63   ar
    37   150   151    1
    38    14    15    2
    39    14    19   am
    40   102   101    2
    41    60    62   ar
    42    90    89    1
    43    99   100    1
    44    25    19    1
    45    25    24    1
    46    48    47    2
    47    47    46    1
    48    19    20    1
    49    63    64   ar
    50   101   100    1
    51   151   152   ar
    52   151   153   ar
    53    62    64   ar
    54   100   103    1
    55   152   154   ar
    56    89    88    1
    57    89    92    1
    58    24    23    1
    59    64    65    1
    60    46    45    1
    61    46    49    1
    62    20    23    1
    63    20    21    1
    64    93    94    1
    65    93    92    1
    66   103   104    1
    67    94    95    1
    68   153   155   ar
    69   110   109    2
    70   107   108    1
    71    49    50    1
    72   154   156   ar
    73   138   137    2
    74    50    51    1
    75    21    22    2
    76    21    26   am
    77   104   106   ar
    78   104   105   ar
    79    52    51    2
    80   137   136    1
    81   155   156   ar
    82   109   108    1
    83    95    96    2
    84   108   111    1
    85    26    27    1
    86    51    53   am
    87   111   112    1
    88    97    96    1
    89    96    98    1
    90   136   139    1
    91   136   135    1
    92   113   112   ar
    93   139   140    1
    94   112   114   ar
    95    27    30    1
    96    27    28    1
    97    30    31    1
    98    41    40    2
    99    33    31    1
   100    29    28    2
   101    31    32    1
   102    28    34   am
   103   140   141    1
   104   141   142    1
   105    40    39    1
   106   144   143    1
   107    34    35    1
   108    77    76    2
   109   142   143    2
   110    37    36    2
   111   143   145    1
   112    76    75    1
   113    39    38    1
   114    39    42    1
   115    36    38   am
   116    36    35    1
   117    38    44    1
   118    42    43    1
   119   130   129    2
   120    44    43    1
   121    75    78    1
   122    75    74    1
   123   129   128    1
   124    78    79    1
   125    80    79   ar
   126    80    82   ar
   127   134   132   ar
   128    79    81   ar
   129   128   131    1
   130   128   127    1
   131   131   132    1
   132   132   133   ar
   133   127   117   am
   134    82    83   ar
   135   115   116    1
   136    81    83   ar
   137    81    84   ar
   138   123   121   ar
   139   123   125   ar
   140   117   116    1
   141   117   118    2
   142    83    85   ar
   143   121   120   ar
   144   116   119    1
   145   126   125    1
   146   125   124   ar
   147    84    86   ar
   148   120   119    1
   149   120   122   ar
   150    85    87   ar
   151   124   122   ar
   152    86    87   ar
