@<TRIPOS>MOLECULE
tmp/1dy4A02.pdb
 215 208 0 0 0
SMALL
GASTEIGER

@<TRIPOS>ATOM
      1  N         30.2380   66.6970   81.1860 N.3   106  ARG106     -0.1245
      2  CA        31.1470   65.9100   82.0200 C.3   106  ARG106      0.1563
      3  C         32.5170   66.4020   81.5840 C.2   106  ARG106      0.2260
      4  O         32.8710   66.3050   80.4090 O.2   106  ARG106     -0.2867
      5  CB        30.9830   64.4050   81.7770 C.3   106  ARG106      0.0307
      6  CG        31.8680   63.5410   82.6700 C.3   106  ARG106      0.0489
      7  CD        31.4480   62.0810   82.6460 C.3   106  ARG106      0.2205
      8  NE        31.6640   61.4420   81.3520 N.pl3 106  ARG106     -0.0865
      9  CZ        30.7440   60.7140   80.7230 C.cat 106  ARG106      0.5346
     10  NH1       29.5450   60.5410   81.2660 N.pl3 106  ARG106      0.1354
     11  NH2       31.0230   60.1530   79.5570 N.pl3 106  ARG106      0.1354
     12  N         28.3370   66.6690   90.3260 N.3   142  ALA142     -0.1245
     13  CA        29.3220   65.7170   90.8100 C.3   142  ALA142      0.1562
     14  C         30.7820   66.0580   90.6170 C.2   142  ALA142      0.2260
     15  O         31.1710   66.5800   89.5770 O.2   142  ALA142     -0.2867
     16  CB        29.0370   64.3390   90.2120 C.3   142  ALA142      0.0290
     17  N         34.1880   63.9020   91.1430 N.3   144  TYR144     -0.1241
     18  CA        34.6910   62.5690   91.4160 C.3   144  TYR144      0.1605
     19  C         35.9770   62.2130   90.7040 C.2   144  TYR144      0.2264
     20  O         36.4800   62.9860   89.8970 O.2   144  TYR144     -0.2867
     21  CB        33.6130   61.5290   91.0850 C.3   144  TYR144      0.0534
     22  CG        33.0930   61.5160   89.6680 C.ar  144  TYR144     -0.0201
     23  CD1       32.2890   62.5500   89.1840 C.ar  144  TYR144     -0.0009
     24  CD2       33.3370   60.4250   88.8350 C.ar  144  TYR144     -0.0009
     25  CE1       31.7340   62.4870   87.9060 C.ar  144  TYR144      0.0417
     26  CE2       32.7880   60.3520   87.5600 C.ar  144  TYR144      0.0417
     27  CZ        31.9840   61.3810   87.1040 C.ar  144  TYR144      0.1957
     28  OH        31.3980   61.2830   85.8630 O.3   144  TYR144     -0.2866
     29  N         36.8850   57.7140   78.8340 N.3   170  TYR170     -0.1241
     30  CA        36.0860   57.6560   80.0630 C.3   170  TYR170      0.1605
     31  C         35.6730   56.2550   80.4860 C.2   170  TYR170      0.2264
     32  O         35.4930   55.3600   79.6560 O.2   170  TYR170     -0.2867
     33  CB        34.8180   58.5070   79.9530 C.3   170  TYR170      0.0534
     34  CG        34.0190   58.5780   81.2450 C.ar  170  TYR170     -0.0201
     35  CD1       34.5310   59.2310   82.3720 C.ar  170  TYR170     -0.0009
     36  CD2       32.7540   57.9890   81.3440 C.ar  170  TYR170     -0.0009
     37  CE1       33.8040   59.2990   83.5620 C.ar  170  TYR170      0.0417
     38  CE2       32.0200   58.0520   82.5320 C.ar  170  TYR170      0.0417
     39  CZ        32.5490   58.7090   83.6310 C.ar  170  TYR170      0.1957
     40  OH        31.8160   58.7960   84.7920 O.3   170  TYR170     -0.2866
     41  N         33.8210   54.4220   84.4310 N.3   172  ASP172     -0.1225
     42  CA        33.4110   54.5690   85.8240 C.3   172  ASP172      0.1805
     43  C         32.8670   53.2240   86.2880 C.2   172  ASP172      0.2598
     44  O         32.8810   52.2550   85.5190 O.2   172  ASP172     -0.2718
     45  CB        32.4400   55.7670   86.0710 C.3   172  ASP172      0.1424
     46  CG        31.0550   55.6090   85.4580 C.2   172  ASP172      0.3668
     47  OD1       30.4880   54.5010   85.4460 O.co2 172  ASP172     -0.2456
     48  OD2       30.4990   56.6410   85.0250 O.co2 172  ASP172     -0.2456
     49  N         32.3920   53.1540   87.5260 N.am  173  SER173     -0.1938
     50  CA        31.9050   51.8910   88.0770 C.3   173  SER173      0.2055
     51  C         30.5780   51.3440   87.5810 C.2   173  SER173      0.2642
     52  O         30.1660   50.2540   87.9910 O.2   173  SER173     -0.2714
     53  CB        31.8630   51.9790   89.5850 C.3   173  SER173      0.2130
     54  OG        30.9790   52.9940   90.0230 O.3   173  SER173     -0.2179
     55  N         29.9160   52.0840   86.6960 N.am  174  GLN174     -0.1976
     56  CA        28.6390   51.6410   86.1380 C.3   174  GLN174      0.1601
     57  C         28.9100   50.9190   84.8340 C.2   174  GLN174      0.2287
     58  O         27.9880   50.3800   84.2130 O.2   174  GLN174     -0.2864
     59  CB        27.7170   52.8410   85.8560 C.3   174  GLN174      0.0394
     60  CG        27.3400   53.6850   87.0630 C.3   174  GLN174      0.0908
     61  CD        26.6590   52.8840   88.1590 C.2   174  GLN174      0.2608
     62  OE1       25.6690   52.1880   87.9190 O.2   174  GLN174     -0.2717
     63  NE2       27.1940   52.9730   89.3680 N.am  174  GLN174     -0.0878
     64  N         35.8840   53.9940   90.7280 N.3   211  GLU211     -0.1245
     65  CA        35.3030   55.3240   90.8390 C.3   211  GLU211      0.1567
     66  C         35.2250   55.8010   92.2840 C.2   211  GLU211      0.2260
     67  O         34.6670   55.1180   93.1420 O.2   211  GLU211     -0.2867
     68  CB        33.9000   55.3160   90.2110 C.3   211  GLU211      0.0388
     69  CG        33.2010   56.6770   90.1050 C.3   211  GLU211      0.1160
     70  CD        31.7520   56.5740   89.6600 C.2   211  GLU211      0.3649
     71  OE1       31.3060   55.4800   89.2600 O.co2 211  GLU211     -0.2457
     72  OE2       31.0500   57.6030   89.6940 O.co2 211  GLU211     -0.2457
     73  N         33.6010   58.6210   94.2700 N.3   213  ASP213     -0.1239
     74  CA        32.6410   59.7140   94.2690 C.3   213  ASP213      0.1674
     75  C         32.7820   60.5370   95.5290 C.2   213  ASP213      0.2266
     76  O         32.1690   60.2440   96.5530 O.2   213  ASP213     -0.2867
     77  CB        31.2100   59.1890   94.1260 C.3   213  ASP213      0.1410
     78  CG        30.9660   58.5420   92.7910 C.2   213  ASP213      0.3668
     79  OD1       31.2240   59.1970   91.7590 O.co2 213  ASP213     -0.2456
     80  OD2       30.5160   57.3820   92.7640 O.co2 213  ASP213     -0.2456
     81  N         28.5260   63.8690   95.2210 N.3   216  GLU216     -0.1245
     82  CA        27.3890   63.6810   94.3220 C.3   216  GLU216      0.1567
     83  C         26.2940   64.3650   95.1090 C.2   216  GLU216      0.2260
     84  O         25.8710   63.8620   96.1560 O.2   216  GLU216     -0.2867
     85  CB        27.0790   62.2010   94.0880 C.3   216  GLU216      0.0388
     86  CG        28.0240   61.5490   93.0850 C.3   216  GLU216      0.1160
     87  CD        27.5790   60.1680   92.6870 C.2   216  GLU216      0.3649
     88  OE1       27.6900   59.2410   93.5160 O.co2 216  GLU216     -0.2457
     89  OE2       27.1060   60.0180   91.5450 O.co2 216  GLU216     -0.2457
     90  N         33.7500   53.1790   94.9330 N.3   227  HIS227     -0.1241
     91  CA        33.2710   52.0510   94.1340 C.3   227  HIS227      0.1621
     92  C         34.4470   51.2180   93.6050 C.2   227  HIS227      0.2264
     93  O         35.1710   51.6730   92.7120 O.2   227  HIS227     -0.2867
     94  CB        32.5000   52.5380   92.9100 C.3   227  HIS227      0.0745
     95  CG        31.1960   53.2150   93.1920 C.ar  227  HIS227      0.0817
     96  ND1       29.9810   52.5960   92.9870 N.ar  227  HIS227     -0.2268
     97  CD2       30.9120   54.4950   93.5330 C.ar  227  HIS227      0.1154
     98  CE1       29.0060   53.4680   93.1820 C.ar  227  HIS227      0.1986
     99  NE2       29.5440   54.6270   93.5130 N.ar  227  HIS227     -0.2212
    100  N         24.0840   50.2690   85.5030 N.3   245  THR245     -0.1203
    101  CA        22.7810   50.8690   85.1920 C.3   245  THR245      0.1994
    102  C         22.2650   50.5980   83.7760 C.2   245  THR245      0.2617
    103  O         21.0550   50.4860   83.5510 O.2   245  THR245     -0.2717
    104  CB        22.8590   52.3910   85.3840 C.3   245  THR245      0.1784
    105  OG1       23.4910   52.6750   86.6390 O.3   245  THR245     -0.2211
    106  CG2       21.4810   52.9990   85.3750 C.3   245  THR245      0.0376
    107  N         23.2000   50.4800   82.8410 N.am  246  TYR246     -0.1975
    108  CA        22.8980   50.2600   81.4330 C.3   246  TYR246      0.1639
    109  C         22.5860   48.8100   81.0460 C.2   246  TYR246      0.2290
    110  O         22.0990   48.5580   79.9360 O.2   246  TYR246     -0.2864
    111  CB        24.0660   50.8010   80.6050 C.3   246  TYR246      0.0560
    112  CG        24.3660   52.2580   80.9040 C.ar  246  TYR246     -0.0198
    113  CD1       23.5420   53.2740   80.4200 C.ar  246  TYR246     -0.0009
    114  CD2       25.4550   52.6200   81.6920 C.ar  246  TYR246     -0.0009
    115  CE1       23.7960   54.6090   80.7050 C.ar  246  TYR246      0.0417
    116  CE2       25.7170   53.9580   81.9880 C.ar  246  TYR246      0.0417
    117  CZ        24.8850   54.9430   81.4880 C.ar  246  TYR246      0.1957
    118  OH        25.1570   56.2630   81.7540 O.3   246  TYR246     -0.2866
    119  N         22.6330   44.5000   87.0480 N.3   250  ARG250     -0.1245
    120  CA        23.6950   45.4180   87.4700 C.3   250  ARG250      0.1563
    121  C         24.8670   44.7990   88.2260 C.2   250  ARG250      0.2260
    122  O         25.9410   45.3980   88.2990 O.2   250  ARG250     -0.2867
    123  CB        23.1000   46.5920   88.2730 C.3   250  ARG250      0.0307
    124  CG        22.3740   46.2280   89.5590 C.3   250  ARG250      0.0489
    125  CD        21.6520   47.4300   90.1890 C.3   250  ARG250      0.2205
    126  NE        22.5400   48.4690   90.7230 N.pl3 250  ARG250     -0.0865
    127  CZ        22.6980   49.6770   90.1830 C.cat 250  ARG250      0.5346
    128  NH1       22.0320   50.0100   89.0830 N.pl3 250  ARG250      0.1354
    129  NH2       23.5190   50.5530   90.7450 N.pl3 250  ARG250      0.1354
    130  N         28.4470   48.7500   91.1720 N.3   257  PRO257     -0.2102
    131  CA        27.6520   49.9200   90.7950 C.3   257  PRO257      0.1504
    132  C         26.9740   50.6490   91.9610 C.2   257  PRO257      0.2575
    133  O         26.4800   51.7680   91.7890 O.2   257  PRO257     -0.2718
    134  CB        26.6490   49.3310   89.8100 C.3   257  PRO257      0.0282
    135  CG        26.3450   48.0040   90.4280 C.3   257  PRO257      0.0208
    136  CD        27.7120   47.5040   90.8570 C.3   257  PRO257      0.0893
    137  N         26.9560   50.0170   93.1370 N.am  258  ASP258     -0.1974
    138  CA        26.3180   50.6080   94.3130 C.3   258  ASP258      0.1708
    139  C         27.2770   51.3920   95.1880 C.2   258  ASP258      0.2293
    140  O         26.9970   52.5370   95.5600 O.2   258  ASP258     -0.2864
    141  CB        25.6410   49.5300   95.1630 C.3   258  ASP258      0.1436
    142  CG        24.5180   48.8140   94.4300 C.2   258  ASP258      0.3671
    143  OD1       24.0240   49.3110   93.3930 O.co2 258  ASP258     -0.2456
    144  OD2       24.1180   47.7400   94.9140 O.co2 258  ASP258     -0.2456
    145  N         31.0310   67.2850   86.8960 N.3   364  SER364     -0.1217
    146  CA        29.8570   67.2150   86.0390 C.3   364  SER364      0.1889
    147  C         28.5660   67.7440   86.6240 C.2   364  SER364      0.2288
    148  O         28.4880   68.0790   87.8060 O.2   364  SER364     -0.2866
    149  CB        29.6210   65.7560   85.6070 C.3   364  SER364      0.2089
    150  OG        29.2360   64.9430   86.7010 O.3   364  SER364     -0.2183
    151  N         24.4060   66.6500   85.7220 N.3   366  TRP366     -0.1241
    152  CA        23.5230   65.7810   84.9520 C.3   366  TRP366      0.1605
    153  C         22.2270   65.4450   85.6670 C.2   366  TRP366      0.2264
    154  O         22.1250   65.5830   86.8920 O.2   366  TRP366     -0.2867
    155  CB        24.2460   64.4530   84.6310 C.3   366  TRP366      0.0550
    156  CG        24.7810   63.7060   85.8550 C.ar  366  TRP366      0.0003
    157  CD1       25.8010   64.1000   86.6760 C.ar  366  TRP366      0.0946
    158  CD2       24.3260   62.4390   86.3670 C.ar  366  TRP366      0.0152
    159  NE1       26.0110   63.1610   87.6620 N.ar  366  TRP366     -0.2442
    160  CE2       25.1210   62.1330   87.4970 C.ar  366  TRP366      0.0810
    161  CE3       23.3260   61.5360   85.9800 C.ar  366  TRP366      0.0012
    162  CZ2       24.9480   60.9590   88.2460 C.ar  366  TRP366      0.0191
    163  CZ3       23.1540   60.3630   86.7260 C.ar  366  TRP366      0.0001
    164  CH2       23.9640   60.0900   87.8470 C.ar  366  TRP366      0.0015
    165  N         19.1390   62.2780   85.7130 N.3   368  ASP368     -0.1239
    166  CA        19.1360   60.8260   85.5600 C.3   368  ASP368      0.1674
    167  C         17.9590   60.2470   84.7690 C.2   368  ASP368      0.2266
    168  O         16.8190   60.2490   85.2320 O.2   368  ASP368     -0.2867
    169  CB        19.2540   60.2630   86.9950 C.3   368  ASP368      0.1410
    170  CG        19.2290   58.7460   87.0860 C.2   368  ASP368      0.3668
    171  OD1       19.4370   58.0290   86.0840 O.co2 368  ASP368     -0.2456
    172  OD2       19.0060   58.2720   88.2190 O.co2 368  ASP368     -0.2456
    173  N         17.5450   57.1250   84.0200 N.3   370  TYR370     -0.1227
    174  CA        17.2450   55.7560   84.4380 C.3   370  TYR370      0.1736
    175  C         16.4270   55.6890   85.7260 C.2   370  TYR370      0.2595
    176  O         15.4500   54.9400   85.7940 O.2   370  TYR370     -0.2718
    177  CB        18.5310   54.9390   84.6310 C.3   370  TYR370      0.0548
    178  CG        18.2830   53.5330   85.1640 C.ar  370  TYR370     -0.0200
    179  CD1       17.7250   52.5430   84.3530 C.ar  370  TYR370     -0.0009
    180  CD2       18.5520   53.2130   86.5010 C.ar  370  TYR370     -0.0009
    181  CE1       17.4360   51.2710   84.8600 C.ar  370  TYR370      0.0417
    182  CE2       18.2670   51.9460   87.0150 C.ar  370  TYR370      0.0417
    183  CZ        17.7090   50.9840   86.1910 C.ar  370  TYR370      0.1957
    184  OH        17.4220   49.7360   86.7010 O.3   370  TYR370     -0.2866
    185  N         16.8290   56.4610   86.7350 N.am  371  ALA371     -0.1980
    186  CA        16.1570   56.4300   88.0340 C.3   371  ALA371      0.1597
    187  C         15.7920   57.7780   88.6510 C.2   371  ALA371      0.2287
    188  O         15.5750   57.8510   89.8600 O.2   371  ALA371     -0.2864
    189  CB        17.0090   55.6250   89.0210 C.3   371  ALA371      0.0319
    190  N         17.7550   57.7510   93.9590 N.3   375  TRP375     -0.1241
    191  CA        18.7310   57.0150   94.7630 C.3   375  TRP375      0.1605
    192  C         19.6180   57.9300   95.6050 C.2   375  TRP375      0.2264
    193  O         20.2620   57.4820   96.5530 O.2   375  TRP375     -0.2867
    194  CB        19.6130   56.1490   93.8600 C.3   375  TRP375      0.0550
    195  CG        20.2260   56.8990   92.7160 C.ar  375  TRP375      0.0003
    196  CD1       19.6620   57.1370   91.4970 C.ar  375  TRP375      0.0946
    197  CD2       21.5170   57.5240   92.6910 C.ar  375  TRP375      0.0152
    198  NE1       20.5220   57.8700   90.7100 N.ar  375  TRP375     -0.2442
    199  CE2       21.6670   58.1220   91.4200 C.ar  375  TRP375      0.0810
    200  CE3       22.5600   57.6390   93.6200 C.ar  375  TRP375      0.0012
    201  CZ2       22.8200   58.8260   91.0520 C.ar  375  TRP375      0.0191
    202  CZ3       23.7080   58.3400   93.2550 C.ar  375  TRP375      0.0001
    203  CH2       23.8250   58.9230   91.9810 C.ar  375  TRP375      0.0015
    204  N         14.1330   55.4410   97.7480 N.3   380  TYR380     -0.1241
    205  CA        14.4520   54.4800   96.6900 C.3   380  TYR380      0.1605
    206  C         14.6680   53.0440   97.2020 C.2   380  TYR380      0.2264
    207  O         15.4990   52.8300   98.0910 O.2   380  TYR380     -0.2867
    208  CB        15.6920   54.9500   95.9330 C.3   380  TYR380      0.0534
    209  CG        15.9490   54.2640   94.6130 C.ar  380  TYR380     -0.0201
    210  CD1       15.1130   54.4800   93.5190 C.ar  380  TYR380     -0.0009
    211  CD2       17.0540   53.4310   94.4430 C.ar  380  TYR380     -0.0009
    212  CE1       15.3760   53.8880   92.2870 C.ar  380  TYR380      0.0417
    213  CE2       17.3250   52.8350   93.2180 C.ar  380  TYR380      0.0417
    214  CZ        16.4840   53.0690   92.1440 C.ar  380  TYR380      0.1957
    215  OH        16.7570   52.4960   90.9270 O.3   380  TYR380     -0.2866
@<TRIPOS>BOND
     1    29    30    1
     2    11     9    1
     3    32    31    2
     4   110   109    2
     5    33    30    1
     6    33    34    1
     7    30    31    1
     8     4     3    2
     9   113   115   ar
    10   113   112   ar
    11   111   112    1
    12   111   108    1
    13   115   117   ar
    14     9    10    1
    15     9     8    2
    16   112   114   ar
    17   109   108    1
    18     1     2    1
    19    34    36   ar
    20    34    35   ar
    21    36    38   ar
    22     8     7    1
    23   108   107    1
    24   117   118    1
    25   117   116   ar
    26     3     2    1
    27   114   116   ar
    28     5     2    1
    29     5     6    1
    30    35    37   ar
    31    38    39   ar
    32     7     6    1
    33   107   102   am
    34   103   102    2
    35    37    39   ar
    36    39    40    1
    37   102   101    1
    38   173   174    1
    39    58    57    2
    40   179   181   ar
    41   179   178   ar
    42    41    42    1
    43   174   177    1
    44   174   175    1
    45   155   152    1
    46   155   156    1
    47   177   178    1
    48   167   168    2
    49   167   166    1
    50    57    56    1
    51   181   183   ar
    52   152   153    1
    53   152   151    1
    54    48    46   ar
    55   178   180   ar
    56   101   104    1
    57   101   100    1
    58   106   104    1
    59   104   105    1
    60    47    46   ar
    61    46    45    1
    62    44    43    2
    63   166   165    1
    64   166   169    1
    65   149   146    1
    66   149   150    1
    67   153   154    2
    68   175   176    2
    69   175   185   am
    70    42    45    1
    71    42    43    1
    72   156   158   ar
    73   156   157   ar
    74    59    56    1
    75    59    60    1
    76    28    27    1
    77   161   158   ar
    78   161   163   ar
    79   146   147    1
    80   146   145    1
    81   171   170   ar
    82    56    55    1
    83   183   184    1
    84   183   182   ar
    85    43    49   am
    86   158   160   ar
    87   180   182   ar
    88   147   148    2
    89   157   159   ar
    90    55    51   am
    91   163   164   ar
    92   185   186    1
    93   169   170    1
    94   119   120    1
    95    60    61    1
    96   170   172   ar
    97    27    26   ar
    98    27    25   ar
    99   120   121    1
   100   120   123    1
   101   160   159   ar
   102   160   162   ar
   103    49    50    1
   104    26    24   ar
   105    51    52    2
   106    51    50    1
   107   164   162   ar
   108    25    23   ar
   109    62    61    2
   110   186   187    1
   111   186   189    1
   112    50    53    1
   113    61    63   am
   114   121   122    2
   115   123   124    1
   116   187   188    2
   117    24    22   ar
   118   128   127    1
   119    23    22   ar
   120    71    70   ar
   121   124   125    1
   122    15    14    2
   123    53    54    1
   124    70    72   ar
   125    70    69    1
   126    22    21    1
   127   134   135    1
   128   134   131    1
   129    20    19    2
   130    69    68    1
   131   127   126    2
   132   127   129    1
   133   125   126    1
   134    68    65    1
   135    16    13    1
   136    12    13    1
   137   135   136    1
   138    14    13    1
   139    19    18    1
   140   198   199   ar
   141   198   196   ar
   142    64    65    1
   143   131   130    1
   144   131   132    1
   145    65    66    1
   146   136   130    1
   147   215   214    1
   148   201   199   ar
   149   201   203   ar
   150    21    18    1
   151    17    18    1
   152   199   197   ar
   153   196   195   ar
   154    89    87   ar
   155    79    78   ar
   156   133   132    2
   157   132   137   am
   158   203   202   ar
   159   214   212   ar
   160   214   213   ar
   161    66    67    2
   162   212   210   ar
   163    87    86    1
   164    87    88   ar
   165   197   195   ar
   166   197   200   ar
   167    93    92    2
   168   195   194    1
   169    80    78   ar
   170    78    77    1
   171    94    95    1
   172    94    91    1
   173    96    98   ar
   174    96    95   ar
   175    86    85    1
   176   137   138    1
   177    98    99   ar
   178    95    97   ar
   179   213   211   ar
   180   202   200   ar
   181   143   142   ar
   182    99    97   ar
   183   210   209   ar
   184    92    91    1
   185   194   191    1
   186   190   191    1
   187    85    82    1
   188    77    74    1
   189    91    90    1
   190    74    73    1
   191    74    75    1
   192   138   141    1
   193   138   139    1
   194    82    83    1
   195    82    81    1
   196   142   144   ar
   197   142   141    1
   198   211   209   ar
   199   209   208    1
   200   191   192    1
   201    83    84    2
   202   139   140    2
   203    75    76    2
   204   192   193    2
   205   208   205    1
   206   205   206    1
   207   205   204    1
   208   206   207    2
