@<TRIPOS>MOLECULE
tmp/1dy8A01.pdb
 151 145 0 0 0
SMALL
GASTEIGER

@<TRIPOS>ATOM
      1  N         72.8300   -6.4610    5.9280 N.3    41  GLN41      -0.1231
      2  CA        72.1780   -7.7480    6.0810 C.3    41  GLN41       0.1698
      3  C         72.8030   -8.9450    5.3780 C.2    41  GLN41       0.2593
      4  O         73.5720   -8.9390    4.4250 O.2    41  GLN41      -0.2718
      5  CB        70.6930   -7.7250    5.7570 C.3    41  GLN41       0.0381
      6  CG        70.1950   -6.8210    4.6460 C.3    41  GLN41       0.0905
      7  CD        68.6830   -6.6740    4.7770 C.2    41  GLN41       0.2608
      8  OE1       68.0260   -7.5600    5.3420 O.2    41  GLN41      -0.2717
      9  NE2       68.1790   -5.5630    4.2700 N.am   41  GLN41      -0.0878
     10  N         72.4620  -10.0780    6.0010 N.am   42  SER42      -0.1938
     11  CA        72.8610  -11.3980    5.5500 C.3    42  SER42       0.2055
     12  C         71.6820  -12.2560    5.1140 C.2    42  SER42       0.2643
     13  O         70.5410  -12.0520    5.5350 O.2    42  SER42      -0.2714
     14  CB        73.6510  -12.0910    6.6380 C.3    42  SER42       0.2130
     15  OG        75.0170  -12.1450    6.2800 O.3    42  SER42      -0.2179
     16  N         71.9330  -13.0340    4.0580 N.am   43  PHE43      -0.1973
     17  CA        70.8440  -13.8040    3.4370 C.3    43  PHE43       0.1639
     18  C         71.4040  -14.8010    2.4330 C.2    43  PHE43       0.2290
     19  O         72.6420  -14.9880    2.2990 O.2    43  PHE43      -0.2864
     20  CB        69.8140  -12.8490    2.8530 C.3    43  PHE43       0.0560
     21  CG        70.2930  -11.7490    1.9430 C.ar   43  PHE43      -0.0200
     22  CD1       70.9000  -10.5960    2.4210 C.ar   43  PHE43      -0.0042
     23  CD2       70.1490  -11.9020    0.5720 C.ar   43  PHE43      -0.0042
     24  CE1       71.4260   -9.6680    1.5180 C.ar   43  PHE43      -0.0003
     25  CE2       70.5660  -10.9320   -0.3350 C.ar   43  PHE43      -0.0003
     26  CZ        71.2460   -9.8210    0.1620 C.ar   43  PHE43      -0.0000
     27  N         65.5410  -12.6600   -1.8700 N.3    55  VAL55      -0.1245
     28  CA        64.4740  -11.7710   -1.4050 C.3    55  VAL55       0.1561
     29  C         64.7620  -10.3110   -1.7160 C.2    55  VAL55       0.2260
     30  O         65.8830   -9.8670   -1.4900 O.2    55  VAL55      -0.2867
     31  CB        64.3360  -11.9030    0.1370 C.3    55  VAL55       0.0252
     32  CG1       63.4540  -13.1150    0.3290 C.3    55  VAL55       0.0019
     33  CG2       65.7080  -12.0290    0.8180 C.3    55  VAL55       0.0019
     34  N         63.5440   -7.8420    0.0120 N.3    57  HIS57      -0.1241
     35  CA        63.7670   -7.1720    1.2850 C.3    57  HIS57       0.1621
     36  C         65.2250   -7.3310    1.7140 C.2    57  HIS57       0.2264
     37  O         65.6460   -6.5590    2.5530 O.2    57  HIS57      -0.2867
     38  CB        62.7910   -7.5480    2.4110 C.3    57  HIS57       0.0745
     39  CG        62.9100   -8.9620    2.8690 C.ar   57  HIS57       0.0817
     40  ND1       61.9970   -9.9450    2.4610 N.ar   57  HIS57      -0.2268
     41  CD2       63.8190   -9.5050    3.7220 C.ar   57  HIS57       0.1154
     42  CE1       62.3870  -11.0740    3.0740 C.ar   57  HIS57       0.1986
     43  NE2       63.4700  -10.8420    3.8290 N.ar   57  HIS57      -0.2212
     44  N         52.7970  -21.2090    2.2050 N.3   123  ARG123     -0.1245
     45  CA        53.0760  -21.4850    3.6130 C.3   123  ARG123      0.1563
     46  C         53.4170  -22.9490    3.9070 C.2   123  ARG123      0.2260
     47  O         53.2250  -23.8790    3.1250 O.2   123  ARG123     -0.2867
     48  CB        51.8740  -21.0260    4.4450 C.3   123  ARG123      0.0307
     49  CG        52.2670  -20.5120    5.8290 C.3   123  ARG123      0.0489
     50  CD        51.0910  -20.5900    6.7850 C.3   123  ARG123      0.2205
     51  NE        50.8520  -19.3730    7.5370 N.pl3 123  ARG123     -0.0865
     52  CZ        51.0450  -18.1130    7.1800 C.cat 123  ARG123      0.5346
     53  NH1       51.5780  -17.7630    6.0140 N.pl3 123  ARG123      0.1354
     54  NH2       50.7090  -17.1400    8.0250 N.pl3 123  ARG123      0.1354
     55  N         63.5050  -18.1720   16.0920 N.3   132  VAL132     -0.1245
     56  CA        63.7250  -17.3100   14.9330 C.3   132  VAL132      0.1561
     57  C         65.2030  -17.0200   14.7230 C.2   132  VAL132      0.2260
     58  O         65.6370  -17.0450   13.5600 O.2   132  VAL132     -0.2867
     59  CB        62.9250  -15.9990   15.0150 C.3   132  VAL132      0.0252
     60  CG1       63.1780  -15.3680   16.3630 C.3   132  VAL132      0.0019
     61  CG2       63.3410  -15.0850   13.8660 C.3   132  VAL132      0.0019
     62  N         67.0720  -18.9500   12.1840 N.3   135  LEU135     -0.1231
     63  CA        66.6090  -18.7420   10.8220 C.3   135  LEU135      0.1693
     64  C         67.0710  -17.4410   10.1720 C.2   135  LEU135      0.2592
     65  O         67.0070  -17.2500    8.9460 O.2   135  LEU135     -0.2718
     66  CB        65.0770  -18.7100   10.8920 C.3   135  LEU135      0.0284
     67  CG        64.2930  -19.8840   10.3190 C.3   135  LEU135      0.0019
     68  CD1       64.9530  -21.2370   10.5020 C.3   135  LEU135      0.0001
     69  CD2       62.8970  -19.9000   10.9230 C.3   135  LEU135      0.0001
     70  N         67.4540  -16.4750   10.9870 N.am  136  LYS136     -0.1966
     71  CA        68.0940  -15.2310   10.5860 C.3   136  LYS136      0.1728
     72  C         69.2640  -15.4940    9.6500 C.2   136  LYS136      0.2617
     73  O         70.1540  -16.2690    9.9920 O.2   136  LYS136     -0.2715
     74  CB        68.5190  -14.4490   11.8330 C.3   136  LYS136      0.0311
     75  CG        67.3790  -13.5380   12.3390 C.3   136  LYS136      0.0038
     76  CD        66.8750  -12.7310   11.1600 C.3   136  LYS136      0.0206
     77  CE        65.9200  -11.6020   11.4630 C.3   136  LYS136      0.1093
     78  NZ        65.7930  -10.7320   10.2440 N.3   136  LYS136     -0.1314
     79  N         69.2430  -14.9020    8.4550 N.am  137  GLY137     -0.1940
     80  CA        70.3550  -15.0520    7.5310 C.3   137  GLY137      0.2014
     81  C         70.0820  -16.1850    6.5430 C.2   137  GLY137      0.2640
     82  O         70.9000  -16.4370    5.6400 O.2   137  GLY137     -0.2714
     83  N         68.9120  -16.8110    6.7060 N.am  138  SER138     -0.1935
     84  CA        68.5180  -17.8590    5.7730 C.3   138  SER138      0.2055
     85  C         67.4880  -17.4210    4.7350 C.2   138  SER138      0.2640
     86  O         67.0740  -18.2480    3.9080 O.2   138  SER138     -0.2714
     87  CB        67.9570  -19.0410    6.5730 C.3   138  SER138      0.2130
     88  OG        68.9970  -19.7490    7.2210 O.3   138  SER138     -0.2179
     89  N         66.9730  -16.2000    4.8270 N.am  139  SER139     -0.2003
     90  CA        66.0060  -15.7060    3.8330 C.3   139  SER139      0.1610
     91  C         66.5390  -15.8860    2.4220 C.3   139  SER139      0.2063
     92  O         67.7110  -15.5430    2.2910 O.3   139  SER139     -0.2184
     93  CB        65.7900  -14.2130    4.1100 C.3   139  SER139      0.2063
     94  OG        65.0530  -14.0360    5.2900 O.3   139  SER139     -0.2184
     95  N         62.7490  -19.3260    0.8380 N.3   154  PHE154     -0.1227
     96  CA        62.3780  -18.8560    2.1630 C.3   154  PHE154      0.1736
     97  C         62.3240  -17.3380    2.3440 C.2   154  PHE154      0.2595
     98  O         63.2320  -16.6000    1.9350 O.2   154  PHE154     -0.2718
     99  CB        63.3320  -19.4530    3.2010 C.3   154  PHE154      0.0547
    100  CG        63.0850  -18.9690    4.5970 C.ar  154  PHE154     -0.0202
    101  CD1       61.8210  -19.0290    5.1590 C.ar  154  PHE154     -0.0042
    102  CD2       64.1290  -18.4560    5.3590 C.ar  154  PHE154     -0.0042
    103  CE1       61.5900  -18.5940    6.4540 C.ar  154  PHE154     -0.0003
    104  CE2       63.8970  -18.0080    6.6480 C.ar  154  PHE154     -0.0003
    105  CZ        62.6320  -18.0730    7.1930 C.ar  154  PHE154     -0.0000
    106  N         61.2650  -16.8370    2.9620 N.am  155  ARG155     -0.1966
    107  CA        61.0270  -15.4000    3.0650 C.3   155  ARG155      0.1729
    108  C         60.8120  -14.8740    4.4790 C.2   155  ARG155      0.2616
    109  O         61.4460  -13.8780    4.8540 O.2   155  ARG155     -0.2715
    110  CB        59.7060  -15.0250    2.3810 C.3   155  ARG155      0.0348
    111  CG        59.3160  -13.5730    2.5870 C.3   155  ARG155      0.0492
    112  CD        58.3420  -13.2090    1.4510 C.3   155  ARG155      0.2205
    113  NE        57.8400  -11.8740    1.6300 N.pl3 155  ARG155     -0.0865
    114  CZ        56.7300  -11.4530    2.2150 C.cat 155  ARG155      0.5346
    115  NH1       55.8980  -12.3320    2.7460 N.pl3 155  ARG155      0.1354
    116  NH2       56.5880  -10.1320    2.1880 N.pl3 155  ARG155      0.1354
    117  N         59.7620  -15.4230    5.1250 N.am  156  ALA156     -0.1963
    118  CA        59.5330  -14.9050    6.4890 C.3   156  ALA156      0.1728
    119  C         59.2320  -16.0170    7.4780 C.2   156  ALA156      0.2616
    120  O         58.6480  -17.0380    7.1010 O.2   156  ALA156     -0.2715
    121  CB        58.4100  -13.8730    6.4480 C.3   156  ALA156      0.0334
    122  N         59.6280  -15.7790    8.7220 N.am  157  ALA157     -0.1963
    123  CA        59.3140  -16.6760    9.8240 C.3   157  ALA157      0.1728
    124  C         58.0400  -16.2410   10.5450 C.2   157  ALA157      0.2616
    125  O         57.9650  -15.0800   11.0040 O.2   157  ALA157     -0.2715
    126  CB        60.4220  -16.5780   10.8630 C.3   157  ALA157      0.0334
    127  N         57.1110  -17.2040   10.6890 N.am  158  VAL158     -0.1963
    128  CA        55.9250  -16.7860   11.5000 C.3   158  VAL158      0.1727
    129  C         56.1260  -17.3210   12.9100 C.2   158  VAL158      0.2616
    130  O         56.4300  -18.4960   13.1690 O.2   158  VAL158     -0.2715
    131  CB        54.5420  -16.9050   10.8730 C.3   158  VAL158      0.0290
    132  CG1       54.4970  -17.7520    9.6050 C.3   158  VAL158      0.0023
    133  CG2       53.4380  -17.3720   11.8300 C.3   158  VAL158      0.0023
    134  N         56.2770  -16.3540   13.8300 N.am  159  CYS159     -0.1968
    135  CA        56.6220  -16.6760   15.2050 C.3   159  CYS159      0.1712
    136  C         55.8210  -16.0120   16.3130 C.2   159  CYS159      0.2296
    137  O         55.1380  -14.9950   16.1930 O.2   159  CYS159     -0.2864
    138  CB        58.0840  -16.3170   15.5140 C.3   159  CYS159      0.0983
    139  SG        59.0780  -15.5720   14.2310 S.3   159  CYS159     -0.0798
    140  N         59.7790  -15.4520   20.1110 N.3   162  GLY162     -0.1225
    141  CA        61.1140  -15.8650   19.7140 C.3   162  GLY162      0.1811
    142  C         61.1820  -17.2280   19.0450 C.2   162  GLY162      0.2280
    143  O         62.2650  -17.6840   18.6220 O.2   162  GLY162     -0.2866
    144  N         56.9050  -18.4690    5.7740 N.3   168  ASP168     -0.1239
    145  CA        56.3240  -17.9710    4.5240 C.3   168  ASP168      0.1674
    146  C         57.4240  -18.0140    3.4730 C.2   168  ASP168      0.2266
    147  O         58.6030  -17.6710    3.6770 O.2   168  ASP168     -0.2867
    148  CB        55.7690  -16.5800    4.7600 C.3   168  ASP168      0.1410
    149  CG        54.6520  -16.2080    3.8120 C.2   168  ASP168      0.3668
    150  OD1       54.9720  -15.8170    2.6750 O.co2 168  ASP168     -0.2456
    151  OD2       53.4560  -16.2790    4.1570 O.co2 168  ASP168     -0.2456
@<TRIPOS>BOND
     1    27    28    1
     2    29    30    2
     3    29    28    1
     4    28    31    1
     5    25    26   ar
     6    25    23   ar
     7    34    35    1
     8    31    32    1
     9    31    33    1
    10    26    24   ar
    11    23    21   ar
    12    95    96    1
    13    35    36    1
    14    35    38    1
    15   112   113    1
    16   112   111    1
    17    24    22   ar
    18   113   114    2
    19    36    37    2
    20    98    97    2
    21    21    22   ar
    22    21    20    1
    23    96    97    1
    24    96    99    1
    25   116   114    1
    26    44    45    1
    27   114   115    1
    28    92    91    1
    29    19    18    2
    30    97   106   am
    31   110   111    1
    32   110   107    1
    33    38    39    1
    34    91    90    1
    35    18    17    1
    36    40    39   ar
    37    40    42   ar
    38   150   149   ar
    39    20    17    1
    40    39    41   ar
    41   106   107    1
    42   107   108    1
    43    42    43   ar
    44    47    46    2
    45    99   100    1
    46    17    16    1
    47   146   147    2
    48   146   145    1
    49    45    46    1
    50    45    48    1
    51    41    43   ar
    52   149   151   ar
    53   149   148    1
    54    90    93    1
    55    90    89    1
    56    86    85    2
    57    16    12   am
    58    93    94    1
    59     9     7   am
    60     4     3    2
    61    48    49    1
    62   108   109    2
    63   108   117   am
    64   145   148    1
    65   145   144    1
    66   100   101   ar
    67   100   102   ar
    68     6     7    1
    69     6     5    1
    70    85    89   am
    71    85    84    1
    72     7     8    2
    73    12    13    2
    74    12    11    1
    75   117   118    1
    76   101   103   ar
    77   102   104   ar
    78     3    10   am
    79     3     2    1
    80    11    10    1
    81    11    14    1
    82    82    81    2
    83     5     2    1
    84    84    87    1
    85    84    83    1
    86    49    50    1
    87     1     2    1
    88    53    52    1
    89    15    14    1
    90   121   118    1
    91   103   105   ar
    92   118   119    1
    93    81    83   am
    94    81    80    1
    95    87    88    1
    96   104   105   ar
    97    50    51    1
    98   120   119    2
    99    52    51    2
   100    52    54    1
   101   119   122   am
   102    80    79    1
   103    79    72   am
   104   122   123    1
   105    65    64    2
   106   132   131    1
   107    72    73    2
   108    72    71    1
   109   123   124    1
   110   123   126    1
   111    64    63    1
   112    64    70   am
   113    78    77    1
   114    67    68    1
   115    67    66    1
   116    67    69    1
   117   124   127   am
   118   124   125    2
   119    71    70    1
   120    71    74    1
   121   127   128    1
   122    63    66    1
   123    63    62    1
   124   131   128    1
   125   131   133    1
   126    76    77    1
   127    76    75    1
   128   128   129    1
   129    74    75    1
   130   129   130    2
   131   129   134   am
   132    58    57    2
   133   134   135    1
   134    61    59    1
   135   139   138    1
   136    57    56    1
   137    56    59    1
   138    56    55    1
   139    59    60    1
   140   135   138    1
   141   135   136    1
   142   137   136    2
   143   143   142    2
   144   142   141    1
   145   141   140    1
