@<TRIPOS>MOLECULE
tmp/1dy9B01.pdb
 155 149 0 0 0
SMALL
GASTEIGER

@<TRIPOS>ATOM
      1  N         72.6470    3.4430    7.3780 N.3    41  GLN41      -0.1231
      2  CA        71.7490    4.5820    7.3650 C.3    41  GLN41       0.1698
      3  C         72.3440    5.9150    7.8230 C.2    41  GLN41       0.2593
      4  O         73.2940    6.0070    8.5860 O.2    41  GLN41      -0.2718
      5  CB        70.5480    4.4460    8.3010 C.3    41  GLN41       0.0381
      6  CG        69.8940    3.1030    8.4440 C.3    41  GLN41       0.0905
      7  CD        68.3880    3.1680    8.5980 C.2    41  GLN41       0.2608
      8  OE1       67.7240    4.1680    8.2790 O.2    41  GLN41      -0.2717
      9  NE2       67.8220    2.0740    9.0870 N.am   41  GLN41      -0.0878
     10  N         71.5170    6.9190    7.5200 N.am   42  SER42      -0.1938
     11  CA        71.8780    8.3110    7.8080 C.3    42  SER42       0.2055
     12  C         70.6550    9.0600    8.3260 C.2    42  SER42       0.2643
     13  O         69.5720    8.9130    7.7570 O.2    42  SER42      -0.2714
     14  CB        72.4490    8.9300    6.5370 C.3    42  SER42       0.2130
     15  OG        73.8480    9.1190    6.6790 O.3    42  SER42      -0.2179
     16  N         70.8020    9.7470    9.4620 N.am   43  PHE43      -0.1973
     17  CA        69.6070   10.3610   10.0780 C.3    43  PHE43       0.1639
     18  C         70.0580   11.4060   11.0850 C.2    43  PHE43       0.2290
     19  O         71.2510   11.8240   11.1100 O.2    43  PHE43      -0.2864
     20  CB        68.6040    9.3230   10.5890 C.3    43  PHE43       0.0560
     21  CG        69.2210    8.2850   11.5070 C.ar   43  PHE43      -0.0200
     22  CD1       69.8610    7.1590   10.9980 C.ar   43  PHE43      -0.0042
     23  CD2       69.1760    8.4680   12.8700 C.ar   43  PHE43      -0.0042
     24  CE1       70.4800    6.2310   11.8490 C.ar   43  PHE43      -0.0003
     25  CE2       69.8090    7.5690   13.7260 C.ar   43  PHE43      -0.0003
     26  CZ        70.4470    6.4470   13.2130 C.ar   43  PHE43      -0.0000
     27  N         64.6170    8.6900   15.3340 N.3    55  VAL55      -0.1245
     28  CA        63.6750    7.6750   14.8830 C.3    55  VAL55       0.1561
     29  C         64.1730    6.2620   15.2050 C.2    55  VAL55       0.2260
     30  O         65.3140    5.8870   14.9040 O.2    55  VAL55      -0.2867
     31  CB        63.4420    7.8130   13.3640 C.3    55  VAL55       0.0252
     32  CG1       62.5010    9.0220   13.1220 C.3    55  VAL55       0.0019
     33  CG2       64.7230    7.9620   12.5770 C.3    55  VAL55       0.0019
     34  N         63.2200    3.6680   13.5250 N.3    57  HIS57      -0.1241
     35  CA        63.4290    2.9390   12.2820 C.3    57  HIS57       0.1621
     36  C         64.8490    3.2030   11.8190 C.2    57  HIS57       0.2264
     37  O         65.2810    2.4840   10.9430 O.2    57  HIS57      -0.2867
     38  CB        62.4360    3.2830   11.1630 C.3    57  HIS57       0.0745
     39  CG        62.4040    4.6960   10.6310 C.ar   57  HIS57       0.0817
     40  ND1       61.4560    5.6100   11.1390 N.ar   57  HIS57      -0.2268
     41  CD2       63.1370    5.3500    9.7140 C.ar   57  HIS57       0.1154
     42  CE1       61.6440    6.7690   10.4990 C.ar   57  HIS57       0.1986
     43  NE2       62.6520    6.6480    9.6350 N.ar   57  HIS57      -0.2212
     44  N         57.9280    4.9560   17.1250 N.3    81  ASP81      -0.1239
     45  CA        59.1030    5.1060   16.2800 C.3    81  ASP81       0.1674
     46  C         60.0620    6.1160   16.9040 C.2    81  ASP81       0.2266
     47  O         60.6660    6.9330   16.2060 O.2    81  ASP81      -0.2867
     48  CB        58.7180    5.4760   14.8440 C.3    81  ASP81       0.1410
     49  CG        59.8000    5.2790   13.8170 C.2    81  ASP81       0.3668
     50  OD1       60.7780    4.5310   14.1060 O.co2  81  ASP81      -0.2456
     51  OD2       59.7240    5.8530   12.6760 O.co2  81  ASP81      -0.2456
     52  N         50.9430   15.4680   11.3170 N.3   123  ARG123     -0.1245
     53  CA        51.0970   15.8070    9.9150 C.3   123  ARG123      0.1563
     54  C         51.2720   17.2960    9.6190 C.2   123  ARG123      0.2260
     55  O         50.6640   18.1570   10.2730 O.2   123  ARG123     -0.2867
     56  CB        49.8230   15.3490    9.2030 C.3   123  ARG123      0.0307
     57  CG        49.9280   15.2690    7.6890 C.3   123  ARG123      0.0489
     58  CD        50.2560   13.8250    7.3040 C.3   123  ARG123      0.2205
     59  NE        49.4670   13.4110    6.1370 N.pl3 123  ARG123     -0.0865
     60  CZ        49.3360   12.1180    5.8210 C.cat 123  ARG123      0.5346
     61  NH1       49.9030   11.1540    6.5420 N.pl3 123  ARG123      0.1354
     62  NH2       48.6180   11.7960    4.7510 N.pl3 123  ARG123      0.1354
     63  N         61.5970   13.6740   -2.6510 N.3   132  VAL132     -0.1245
     64  CA        61.8820   12.8600   -1.4750 C.3   132  VAL132      0.1561
     65  C         63.3790   12.6940   -1.2380 C.2   132  VAL132      0.2260
     66  O         63.8480   12.7050   -0.0980 O.2   132  VAL132     -0.2867
     67  CB        61.1600   11.5010   -1.5290 C.3   132  VAL132      0.0252
     68  CG1       61.5800   10.6860   -2.7330 C.3   132  VAL132      0.0019
     69  CG2       61.4570   10.6780   -0.2700 C.3   132  VAL132      0.0019
     70  N         64.8570   15.0760    1.2300 N.3   135  LEU135     -0.1231
     71  CA        64.5290   14.7790    2.6170 C.3   135  LEU135      0.1693
     72  C         65.2530   13.5660    3.2120 C.2   135  LEU135      0.2592
     73  O         65.3350   13.4280    4.4390 O.2   135  LEU135     -0.2718
     74  CB        63.0150   14.5090    2.6660 C.3   135  LEU135      0.0284
     75  CG        62.0310   15.6080    3.0360 C.3   135  LEU135      0.0019
     76  CD1       62.4330   17.0040    2.6480 C.3   135  LEU135      0.0001
     77  CD2       60.6280   15.3720    2.5010 C.3   135  LEU135      0.0001
     78  N         65.7320   12.6190    2.4020 N.am  136  LYS136     -0.1966
     79  CA        66.4450   11.4390    2.8360 C.3   136  LYS136      0.1728
     80  C         67.6270   11.8040    3.7360 C.2   136  LYS136      0.2617
     81  O         68.3670   12.7400    3.4510 O.2   136  LYS136     -0.2715
     82  CB        66.9900   10.6550    1.6220 C.3   136  LYS136      0.0311
     83  CG        65.9540    9.9230    0.7810 C.3   136  LYS136      0.0038
     84  CD        65.5710    8.6300    1.5490 C.3   136  LYS136      0.0206
     85  CE        64.1830    8.2580    1.0140 C.3   136  LYS136      0.1093
     86  NZ        63.5380    7.1680    1.7890 N.3   136  LYS136     -0.1314
     87  N         67.8020   11.1110    4.8520 N.am  137  GLY137     -0.1940
     88  CA        68.8160   11.4350    5.8310 C.3   137  GLY137      0.2014
     89  C         68.3650   12.5280    6.8110 C.2   137  GLY137      0.2640
     90  O         69.1570   12.8950    7.6830 O.2   137  GLY137     -0.2714
     91  N         67.1420   13.0570    6.6940 N.am  138  SER138     -0.1935
     92  CA        66.6770   14.0810    7.6310 C.3   138  SER138      0.2055
     93  C         65.7700   13.5620    8.7390 C.2   138  SER138      0.2643
     94  O         65.3390   14.3260    9.6260 O.2   138  SER138     -0.2714
     95  CB        65.9730   15.2150    6.8440 C.3   138  SER138      0.2130
     96  OG        66.9370   16.0510    6.2640 O.3   138  SER138     -0.2179
     97  N         65.3310   12.3180    8.6640 N.am  139  SER139     -0.1949
     98  CA        64.5490   11.6990    9.7280 C.3   139  SER139      0.1924
     99  C         65.2000   11.9160   11.1000 C.2   139  SER139      0.2314
    100  O         66.3980   11.7190   11.2560 O.2   139  SER139     -0.2863
    101  CB        64.3860   10.1830    9.5280 C.3   139  SER139      0.2116
    102  OG        63.6510    9.9890    8.3550 O.3   139  SER139     -0.2180
    103  N         60.9150   14.8490   12.6310 N.3   154  PHE154     -0.1227
    104  CA        60.4110   14.2930   11.3410 C.3   154  PHE154      0.1736
    105  C         60.5830   12.7840   11.2500 C.2   154  PHE154      0.2595
    106  O         61.6440   12.2560   11.6090 O.2   154  PHE154     -0.2718
    107  CB        61.1980   15.0270   10.2530 C.3   154  PHE154      0.0547
    108  CG        61.0740   14.5400    8.8440 C.ar  154  PHE154     -0.0202
    109  CD1       59.8220   14.4180    8.2660 C.ar  154  PHE154     -0.0042
    110  CD2       62.1810   14.2880    8.0630 C.ar  154  PHE154     -0.0042
    111  CE1       59.6540   14.0110    6.9590 C.ar  154  PHE154     -0.0003
    112  CE2       62.0340   13.8490    6.7520 C.ar  154  PHE154     -0.0003
    113  CZ        60.7820   13.7240    6.2070 C.ar  154  PHE154     -0.0000
    114  N         59.5350   12.1210   10.7660 N.am  155  ARG155     -0.1966
    115  CA        59.5180   10.6740   10.6610 C.3   155  ARG155      0.1729
    116  C         59.4190   10.1950    9.2180 C.2   155  ARG155      0.2616
    117  O         60.1630    9.2810    8.8740 O.2   155  ARG155     -0.2715
    118  CB        58.3380   10.0860   11.4740 C.3   155  ARG155      0.0348
    119  CG        58.2400    8.5840   11.4380 C.3   155  ARG155      0.0492
    120  CD        57.1770    8.0030   12.3700 C.3   155  ARG155      0.2205
    121  NE        56.7360    6.7140   11.8510 N.pl3 155  ARG155     -0.0865
    122  CZ        55.7510    6.6040   10.9680 C.cat 155  ARG155      0.5346
    123  NH1       55.0690    7.6510   10.5160 N.pl3 155  ARG155      0.1354
    124  NH2       55.4730    5.3710   10.5710 N.pl3 155  ARG155      0.1354
    125  N         58.5680   10.7920    8.3830 N.am  156  ALA156     -0.1963
    126  CA        58.3630   10.2490    7.0400 C.3   156  ALA156      0.1728
    127  C         57.6950   11.2330    6.0840 C.2   156  ALA156      0.2616
    128  O         56.9850   12.1490    6.4870 O.2   156  ALA156     -0.2715
    129  CB        57.5370    8.9670    7.0960 C.3   156  ALA156      0.0334
    130  N         57.9440   11.0360    4.8030 N.am  157  ALA157     -0.1963
    131  CA        57.5060   11.8970    3.7170 C.3   157  ALA157      0.1728
    132  C         56.1900   11.3630    3.1660 C.2   157  ALA157      0.2616
    133  O         56.1230   10.1360    3.0030 O.2   157  ALA157     -0.2715
    134  CB        58.5440   11.8760    2.5720 C.3   157  ALA157      0.0334
    135  N         55.1940   12.2160    2.9450 N.am  158  VAL158     -0.1963
    136  CA        54.0380   11.7140    2.1900 C.3   158  VAL158      0.1727
    137  C         54.1370   12.2200    0.7440 C.2   158  VAL158      0.2616
    138  O         54.4240   13.4000    0.4370 O.2   158  VAL158     -0.2715
    139  CB        52.6920   11.8980    2.8550 C.3   158  VAL158      0.0290
    140  CG1       52.6750   12.8080    4.0740 C.3   158  VAL158      0.0023
    141  CG2       51.6190   12.3320    1.8580 C.3   158  VAL158      0.0023
    142  N         54.3640   11.2220   -0.1100 N.am  159  CYS159     -0.1968
    143  CA        54.9700   11.4780   -1.4170 C.3   159  CYS159      0.1712
    144  C         54.2950   10.6640   -2.5120 C.2   159  CYS159      0.2296
    145  O         53.7180    9.6020   -2.2860 O.2   159  CYS159     -0.2864
    146  CB        56.4710   11.1490   -1.3290 C.3   159  CYS159      0.0983
    147  SG        56.8290    9.4870   -0.6860 S.3   159  CYS159     -0.0798
    148  N         55.0930   13.4700    7.8950 N.3   168  ASP168     -0.1239
    149  CA        54.6810   12.8760    9.1640 C.3   168  ASP168      0.1674
    150  C         55.7490   13.0770   10.2330 C.2   168  ASP168      0.2266
    151  O         56.9520   12.9080    9.9600 O.2   168  ASP168     -0.2867
    152  CB        54.4700   11.4030    8.8380 C.3   168  ASP168      0.1410
    153  CG        53.5550   10.6530    9.7660 C.2   168  ASP168      0.3668
    154  OD1       54.0080   10.1080   10.7990 O.co2 168  ASP168     -0.2456
    155  OD2       52.3500   10.6000    9.4280 O.co2 168  ASP168     -0.2456
@<TRIPOS>BOND
     1    68    67    1
     2    63    64    1
     3   144   145    2
     4   144   143    1
     5    67    64    1
     6    67    69    1
     7    64    65    1
     8   143   146    1
     9   143   142    1
    10   146   147    1
    11    65    66    2
    12   142   137   am
    13   138   137    2
    14   137   136    1
    15    83    84    1
    16    83    82    1
    17    85    84    1
    18    85    86    1
    19    70    71    1
    20    82    79    1
    21   141   139    1
    22   136   139    1
    23   136   135    1
    24    78    79    1
    25    78    72   am
    26    77    75    1
    27   134   131    1
    28    71    74    1
    29    71    72    1
    30    76    75    1
    31    74    75    1
    32    79    80    1
    33   139   140    1
    34   135   132   am
    35   133   132    2
    36   132   131    1
    37    72    73    2
    38    81    80    2
    39   131   130    1
    40    80    87   am
    41    62    60    1
    42   130   127   am
    43    87    88    1
    44    60    59    2
    45    60    61    1
    46    88    89    1
    47   127   128    2
    48   127   126    1
    49    59    58    1
    50   113   112   ar
    51   113   111   ar
    52    96    95    1
    53    14    15    1
    54    14    11    1
    55    91    89   am
    56    91    92    1
    57   112   110   ar
    58    89    90    2
    59    95    92    1
    60   111   109   ar
    61   126   129    1
    62   126   125    1
    63    58    57    1
    64     2     1    1
    65     2     3    1
    66     2     5    1
    67    10    11    1
    68    10     3   am
    69    92    93    1
    70    57    56    1
    71    13    12    2
    72    11    12    1
    73     3     4    2
    74   148   149    1
    75   110   108   ar
    76   109   108   ar
    77     8     7    2
    78     5     6    1
    79    12    16   am
    80   102   101    1
    81   125   116   am
    82     6     7    1
    83     7     9   am
    84    97    93   am
    85    97    98    1
    86    93    94    2
    87   152   149    1
    88   152   153    1
    89   108   107    1
    90   117   116    2
    91   149   150    1
    92    56    53    1
    93   116   115    1
    94   155   153   ar
    95    16    17    1
    96   101    98    1
    97    54    53    1
    98    54    55    2
    99    43    41   ar
   100    43    42   ar
   101    41    39   ar
   102    98    99    1
   103   153   154   ar
   104    53    52    1
   105   151   150    2
   106    17    20    1
   107    17    18    1
   108   107   104    1
   109    42    40   ar
   110   123   122    1
   111   124   122    1
   112    20    21    1
   113    39    40   ar
   114    39    38    1
   115   115   114    1
   116   115   118    1
   117   114   105   am
   118    37    36    2
   119   122   121    2
   120    22    21   ar
   121    22    24   ar
   122    18    19    2
   123    99   100    2
   124    38    35    1
   125   105   104    1
   126   105   106    2
   127   104   103    1
   128   119   118    1
   129   119   120    1
   130    21    23   ar
   131    36    35    1
   132    24    26   ar
   133   121   120    1
   134    35    34    1
   135    33    31    1
   136    51    49   ar
   137    23    25   ar
   138    32    31    1
   139    26    25   ar
   140    31    28    1
   141    49    50   ar
   142    49    48    1
   143    48    45    1
   144    28    29    1
   145    28    27    1
   146    30    29    2
   147    47    46    2
   148    45    46    1
   149    45    44    1
