@<TRIPOS>MOLECULE
tmp/1dyiA00.pdb
 172 168 0 0 0
SMALL
GASTEIGER

@<TRIPOS>ATOM
      1  N         23.5980   55.9010   16.4630 N.3     5  ILE5       -0.1231
      2  CA        24.1820   56.4260   17.7130 C.3     5  ILE5        0.1692
      3  C         23.3690   55.7730   18.8300 C.2     5  ILE5        0.2592
      4  O         22.1310   55.6340   18.7780 O.2     5  ILE5       -0.2718
      5  CB        24.0960   57.9210   17.7950 C.3     5  ILE5        0.0266
      6  CG1       24.7430   58.2890   19.1230 C.3     5  ILE5        0.0019
      7  CG2       22.6460   58.4100   17.7440 C.3     5  ILE5        0.0020
      8  CD1       25.3820   59.7000   19.0040 C.3     5  ILE5        0.0001
      9  N         24.0890   55.3330   19.8250 N.am    6  ALA6       -0.1966
     10  CA        23.4610   54.6430   20.9190 C.3     6  ALA6        0.1728
     11  C         24.3780   54.5570   22.1230 C.2     6  ALA6        0.2616
     12  O         25.6200   54.7320   22.0620 O.2     6  ALA6       -0.2715
     13  CB        23.0400   53.2360   20.4330 C.3     6  ALA6        0.0334
     14  N         23.7160   54.2640   23.2470 N.am    7  ALA7       -0.1977
     15  CA        24.4300   54.1050   24.5150 C.3     7  ALA7        0.1597
     16  C         24.1870   52.6580   24.9040 C.2     7  ALA7        0.2287
     17  O         23.0180   52.2330   24.9370 O.2     7  ALA7       -0.2864
     18  CB        24.0380   55.1220   25.6150 C.3     7  ALA7        0.0319
     19  N         21.2810   55.1770   34.9750 N.3    22  TRP22      -0.1241
     20  CA        22.5760   55.8430   34.9300 C.3    22  TRP22       0.1605
     21  C         22.3540   57.3270   34.7380 C.2    22  TRP22       0.2264
     22  O         21.2720   57.7240   34.3390 O.2    22  TRP22      -0.2867
     23  CB        23.5670   55.2440   33.8760 C.3    22  TRP22       0.0550
     24  CG        23.1280   55.2920   32.4310 C.ar   22  TRP22       0.0003
     25  CD1       22.8100   56.3890   31.7340 C.ar   22  TRP22       0.0946
     26  CD2       23.0520   54.1950   31.5260 C.ar   22  TRP22       0.0152
     27  NE1       22.4960   56.0400   30.4440 N.ar   22  TRP22      -0.2442
     28  CE2       22.6280   54.6930   30.3040 C.ar   22  TRP22       0.0810
     29  CE3       23.2460   52.8190   31.6660 C.ar   22  TRP22       0.0012
     30  CZ2       22.4330   53.8560   29.1940 C.ar   22  TRP22       0.0191
     31  CZ3       23.0540   51.9870   30.5870 C.ar   22  TRP22       0.0001
     32  CH2       22.6360   52.5210   29.3730 C.ar   22  TRP22       0.0015
     33  N         27.7640   62.0030   28.3320 N.3    27  ASP27      -0.1225
     34  CA        27.2810   61.2380   27.2170 C.3    27  ASP27       0.1805
     35  C         26.1490   61.9870   26.5340 C.2    27  ASP27       0.2598
     36  O         26.0230   61.8840   25.3210 O.2    27  ASP27      -0.2718
     37  CB        26.8220   59.8320   27.5700 C.3    27  ASP27       0.1424
     38  CG        26.2230   59.1320   26.3520 C.2    27  ASP27       0.3668
     39  OD1       26.8630   58.8720   25.3380 O.co2  27  ASP27      -0.2456
     40  OD2       24.9890   58.6990   26.5420 O.co2  27  ASP27      -0.2456
     41  N         25.3150   62.7400   27.2710 N.am   28  LEU28      -0.1966
     42  CA        24.2470   63.4430   26.5680 C.3    28  LEU28       0.1728
     43  C         24.7870   64.5860   25.7150 C.2    28  LEU28       0.2616
     44  O         24.2250   64.8920   24.6730 O.2    28  LEU28      -0.2715
     45  CB        23.2150   63.9600   27.5540 C.3    28  LEU28       0.0311
     46  CG        22.2080   62.9070   27.9430 C.3    28  LEU28       0.0022
     47  CD1       21.3230   63.5940   28.9760 C.3    28  LEU28       0.0001
     48  CD2       21.3800   62.3940   26.7460 C.3    28  LEU28       0.0001
     49  N         25.8970   65.2290   26.1520 N.am   29  ALA29      -0.1963
     50  CA        26.5300   66.3160   25.4160 C.3    29  ALA29       0.1728
     51  C         27.0930   65.7790   24.1360 C.2    29  ALA29       0.2616
     52  O         27.1220   66.3960   23.0850 O.2    29  ALA29      -0.2715
     53  CB        27.7800   66.6950   26.2070 C.3    29  ALA29       0.0334
     54  N         27.6150   64.5440   24.2210 N.am   30  TRP30      -0.1960
     55  CA        28.2130   63.8570   23.0570 C.3    30  TRP30       0.1771
     56  C         27.1140   63.5490   22.0900 C.2    30  TRP30       0.2620
     57  O         27.2660   63.7630   20.9030 O.2    30  TRP30      -0.2715
     58  CB        28.9800   62.5860   23.4740 C.3    30  TRP30       0.0590
     59  CG        29.1650   61.4830   22.4690 C.ar   30  TRP30       0.0006
     60  CD1       28.3050   60.4830   22.2030 C.ar   30  TRP30       0.0946
     61  CD2       30.2990   61.2310   21.6260 C.ar   30  TRP30       0.0152
     62  NE1       28.7980   59.6100   21.2620 N.ar   30  TRP30      -0.2442
     63  CE2       30.0380   60.0580   20.8850 C.ar   30  TRP30       0.0810
     64  CE3       31.5150   61.8910   21.4330 C.ar   30  TRP30       0.0012
     65  CZ2       30.9380   59.5310   19.9520 C.ar   30  TRP30       0.0191
     66  CZ3       32.4060   61.3550   20.5180 C.ar   30  TRP30       0.0001
     67  CH2       32.1090   60.1980   19.7700 C.ar   30  TRP30       0.0015
     68  N         25.9700   63.0730   22.5800 N.am   31  PHE31      -0.1960
     69  CA        24.8400   62.7770   21.7040 C.3    31  PHE31       0.1771
     70  C         24.4230   64.0330   20.9980 C.2    31  PHE31       0.2619
     71  O         24.1760   64.0960   19.7900 O.2    31  PHE31      -0.2715
     72  CB        23.7060   62.3940   22.6460 C.3    31  PHE31       0.0574
     73  CG        22.4420   62.2510   21.8590 C.ar   31  PHE31      -0.0200
     74  CD1       22.1710   61.0770   21.1600 C.ar   31  PHE31      -0.0042
     75  CD2       21.5120   63.2870   21.8310 C.ar   31  PHE31      -0.0042
     76  CE1       21.0030   60.8930   20.4280 C.ar   31  PHE31      -0.0003
     77  CE2       20.3210   63.1390   21.1020 C.ar   31  PHE31      -0.0003
     78  CZ        20.0760   61.9450   20.4010 C.ar   31  PHE31      -0.0000
     79  N         24.3480   65.1090   21.7810 N.am   32  LYS32      -0.1977
     80  CA        23.9310   66.4000   21.2060 C.3    32  LYS32       0.1596
     81  C         24.8780   66.9700   20.1100 C.2    32  LYS32       0.2287
     82  O         24.4600   67.3740   18.9910 O.2    32  LYS32      -0.2864
     83  CB        23.8720   67.4400   22.3210 C.3    32  LYS32       0.0298
     84  CG        23.1950   68.6820   21.7130 C.3    32  LYS32       0.0038
     85  CD        22.8970   69.6710   22.8420 C.3    32  LYS32       0.0206
     86  CE        22.4770   71.0540   22.3580 C.3    32  LYS32       0.1093
     87  NZ        22.2130   72.0670   23.4120 N.3    32  LYS32      -0.1314
     88  N         11.2470   55.8240   21.9270 N.3    46  THR46      -0.1218
     89  CA        12.2870   56.8060   22.0780 C.3    46  THR46       0.1862
     90  C         11.6470   58.1980   22.1620 C.2    46  THR46       0.2287
     91  O         12.0110   59.0440   22.9600 O.2    46  THR46      -0.2866
     92  CB        13.4080   56.6900   21.0440 C.3    46  THR46       0.1770
     93  OG1       14.0710   55.4330   21.1630 O.3    46  THR46      -0.2211
     94  CG2       14.4070   57.8240   21.3240 C.3    46  THR46       0.0375
     95  N         10.4330   58.7360   25.5670 N.3    49  SER49      -0.1202
     96  CA        11.5030   58.9180   26.5070 C.3    49  SER49       0.2020
     97  C         11.9810   60.3620   26.4390 C.2    49  SER49       0.2618
     98  O         12.2510   61.0260   27.4290 O.2    49  SER49      -0.2717
     99  CB        12.6700   57.9760   26.2500 C.3    49  SER49       0.2103
    100  OG        12.5270   56.7900   27.0450 O.3    49  SER49      -0.2182
    101  N         12.0830   60.8810   25.2340 N.am   50  ILE50      -0.1979
    102  CA        12.5380   62.2360   25.0500 C.3    50  ILE50       0.1595
    103  C         11.5640   63.2950   25.5950 C.2    50  ILE50       0.2287
    104  O         11.9310   64.2120   26.3270 O.2    50  ILE50      -0.2864
    105  CB        12.9660   62.4470   23.6000 C.3    50  ILE50       0.0276
    106  CG1       14.0980   61.4810   23.2420 C.3    50  ILE50       0.0022
    107  CG2       13.3920   63.9040   23.4280 C.3    50  ILE50       0.0022
    108  CD1       14.4320   61.6670   21.7710 C.3    50  ILE50       0.0001
    109  N          9.6900   65.7310   23.8510 N.3    52  ARG52      -0.1245
    110  CA         9.4910   66.9700   23.1160 C.3    52  ARG52       0.1563
    111  C         10.4890   66.8260   22.0060 C.2    52  ARG52       0.2260
    112  O         11.4220   66.0300   22.1660 O.2    52  ARG52      -0.2867
    113  CB         9.9310   68.2220   23.9100 C.3    52  ARG52       0.0307
    114  CG        11.0750   67.9640   24.8880 C.3    52  ARG52       0.0489
    115  CD        12.3470   68.7450   24.5670 C.3    52  ARG52       0.2205
    116  NE        13.6300   68.1260   24.9760 N.pl3  52  ARG52      -0.0865
    117  CZ        14.7820   68.7670   25.2590 C.cat  52  ARG52       0.5346
    118  NH1       14.9410   70.0990   25.2230 N.pl3  52  ARG52       0.1354
    119  NH2       15.8330   68.0390   25.6080 N.pl3  52  ARG52       0.1354
    120  N         13.6520   67.2890   19.6130 N.3    54  LEU54      -0.1231
    121  CA        15.0110   67.6210   19.9790 C.3    54  LEU54       0.1681
    122  C         15.2170   68.9040   19.2170 C.2    54  LEU54       0.2471
    123  O         14.9320   68.9580   18.0560 O.2    54  LEU54      -0.2730
    124  CB        15.9720   66.5220   19.4670 C.3    54  LEU54       0.0284
    125  CG        15.8950   65.2550   20.2900 C.3    54  LEU54       0.0019
    126  CD1       16.6820   64.1480   19.6120 C.3    54  LEU54       0.0001
    127  CD2       16.4490   65.5010   21.7040 C.3    54  LEU54       0.0001
    128  N         15.6830   69.9560   19.8470 N.am   55  PRO55      -0.2506
    129  CA        15.8650   71.2000   19.1170 C.3    55  PRO55       0.1487
    130  C         17.0390   71.2320   18.1470 C.2    55  PRO55       0.2276
    131  O         18.0810   70.6000   18.3810 O.2    55  PRO55      -0.2865
    132  CB        16.1990   72.2720   20.1950 C.3    55  PRO55       0.0556
    133  CG        16.1550   71.5790   21.5400 C.2    55  PRO55      -0.0078
    134  CD        15.9200   70.0880   21.3170 C.2    55  PRO55       0.0634
    135  N         17.1580   69.9730   15.2920 N.3    57  ARG57      -0.1245
    136  CA        17.2850   68.7650   14.5060 C.3    57  ARG57       0.1563
    137  C         15.9270   68.4850   13.8770 C.2    57  ARG57       0.2260
    138  O         14.9130   68.8990   14.4310 O.2    57  ARG57      -0.2867
    139  CB        17.7010   67.5470   15.3290 C.3    57  ARG57       0.0307
    140  CG        19.1790   67.5680   15.7310 C.3    57  ARG57       0.0489
    141  CD        19.4450   66.9770   17.1050 C.3    57  ARG57       0.2205
    142  NE        19.1360   67.9070   18.1990 N.pl3  57  ARG57      -0.0865
    143  CZ        19.4850   67.7120   19.4840 C.cat  57  ARG57       0.5346
    144  NH1       20.1700   66.6410   19.8810 N.pl3  57  ARG57       0.1354
    145  NH2       19.1320   68.6180   20.3900 N.pl3  57  ARG57       0.1354
    146  N         18.5200   57.3250   15.9950 N.3    94  ILE94      -0.1245
    147  CA        18.6580   57.2690   17.4260 C.3    94  ILE94       0.1561
    148  C         17.9450   56.2080   18.2090 C.2    94  ILE94       0.2260
    149  O         17.9060   56.3640   19.4600 O.2    94  ILE94      -0.2867
    150  CB        18.4430   58.6900   17.9340 C.3    94  ILE94       0.0252
    151  CG1       16.9760   59.1080   17.7180 C.3    94  ILE94       0.0019
    152  CG2       19.3780   59.6730   17.1700 C.3    94  ILE94       0.0019
    153  CD1       16.6120   60.2470   18.6900 C.3    94  ILE94       0.0001
    154  N         16.9680   50.3320   15.4080 N.3   100  TYR100     -0.1241
    155  CA        18.3600   50.1320   15.0090 C.3   100  TYR100      0.1605
    156  C         18.4140   48.8790   14.1210 C.2   100  TYR100      0.2264
    157  O         19.1700   48.8260   13.1840 O.2   100  TYR100     -0.2867
    158  CB        19.2820   49.8280   16.2200 C.3   100  TYR100      0.0534
    159  CG        19.4850   50.9670   17.2250 C.ar  100  TYR100     -0.0201
    160  CD1       19.9170   52.2160   16.7660 C.ar  100  TYR100     -0.0009
    161  CD2       19.2410   50.8180   18.5940 C.ar  100  TYR100     -0.0009
    162  CE1       20.1620   53.2960   17.6050 C.ar  100  TYR100      0.0417
    163  CE2       19.4530   51.9010   19.4570 C.ar  100  TYR100      0.0417
    164  CZ        19.9120   53.1360   18.9700 C.ar  100  TYR100      0.1957
    165  OH        20.1330   54.2110   19.8120 O.3   100  TYR100     -0.2866
    166  N         28.4540   54.5430   22.7590 N.3   113  THR113     -0.1218
    167  CA        28.9440   54.8960   24.0590 C.3   113  THR113      0.1862
    168  C         28.8690   53.5870   24.8490 C.2   113  THR113      0.2287
    169  O         27.7320   53.1420   25.0710 O.2   113  THR113     -0.2866
    170  CB        28.1500   55.9060   24.8690 C.3   113  THR113      0.1770
    171  OG1       28.2210   57.0410   24.0570 O.3   113  THR113     -0.2211
    172  CG2       28.8670   56.1860   26.1810 C.3   113  THR113      0.0375
@<TRIPOS>BOND
     1   157   156    2
     2   137   138    2
     3   137   136    1
     4   156   155    1
     5   136   135    1
     6   136   139    1
     7   155   154    1
     8   155   158    1
     9   139   140    1
    10   140   141    1
    11   146   147    1
    12   158   159    1
    13     1     2    1
    14   160   159   ar
    15   160   162   ar
    16   141   142    1
    17   152   150    1
    18   159   161   ar
    19   147   150    1
    20   147   148    1
    21   162   164   ar
    22     2     5    1
    23     2     3    1
    24   151   150    1
    25   151   153    1
    26     7     5    1
    27     5     6    1
    28   123   122    2
    29   130   131    2
    30   130   129    1
    31   142   143    2
    32   148   149    2
    33   161   163   ar
    34     4     3    2
    35     3     9   am
    36   164   163   ar
    37   164   165    1
    38    82    81    2
    39     8     6    1
    40   129   128    1
    41   129   132    1
    42   122   128   am
    43   122   121    1
    44   124   121    1
    45   124   125    1
    46   143   144    1
    47   143   145    1
    48   126   125    1
    49   120   121    1
    50    67    65   ar
    51    67    66   ar
    52    71    70    2
    53     9    10    1
    54   128   134    1
    55    65    63   ar
    56    81    80    1
    57   132   133    1
    58   125   127    1
    59    78    76   ar
    60    78    77   ar
    61    76    74   ar
    62    13    10    1
    63    66    64   ar
    64    63    62   ar
    65    63    61   ar
    66    57    56    2
    67    10    11    1
    68    70    69    1
    69    70    79   am
    70    92    93    1
    71    92    94    1
    72    92    89    1
    73    77    75   ar
    74    74    73   ar
    75    80    79    1
    76    80    83    1
    77    62    60   ar
    78   134   133    2
    79    64    61   ar
    80    61    59   ar
    81    69    68    1
    82    69    72    1
    83    84    83    1
    84    84    85    1
    85   108   106    1
    86    75    73   ar
    87    73    72    1
    88    88    89    1
    89   111   112    2
    90   111   110    1
    91    12    11    2
    92    89    90    1
    93    56    68   am
    94    56    55    1
    95    11    14   am
    96    90    91    2
    97    60    59   ar
    98    86    85    1
    99    86    87    1
   100    59    58    1
   101   166   167    1
   102    55    58    1
   103    55    54    1
   104    52    51    2
   105   110   109    1
   106   110   113    1
   107   106   105    1
   108    14    15    1
   109   107   105    1
   110   105   102    1
   111   113   114    1
   112   171   170    1
   113   167   168    1
   114   167   170    1
   115    51    54   am
   116    51    50    1
   117    15    16    1
   118    15    18    1
   119   115   114    1
   120   115   116    1
   121    44    43    2
   122   168   169    2
   123   170   172    1
   124    16    17    2
   125   116   117    2
   126   102   101    1
   127   102   103    1
   128   118   117    1
   129   101    97   am
   130   117   119    1
   131    36    35    2
   132    39    38   ar
   133    50    49    1
   134    50    53    1
   135    95    96    1
   136   103   104    2
   137    43    49   am
   138    43    42    1
   139    99    96    1
   140    99   100    1
   141    38    40   ar
   142    38    37    1
   143    97    96    1
   144    97    98    2
   145    35    34    1
   146    35    41   am
   147    42    41    1
   148    42    45    1
   149    48    46    1
   150    34    37    1
   151    34    33    1
   152    45    46    1
   153    46    47    1
   154    30    32   ar
   155    30    28   ar
   156    32    31   ar
   157    28    27   ar
   158    28    26   ar
   159    27    25   ar
   160    31    29   ar
   161    26    29   ar
   162    26    24   ar
   163    25    24   ar
   164    24    23    1
   165    23    20    1
   166    22    21    2
   167    21    20    1
   168    20    19    1
