@<TRIPOS>MOLECULE
tmp/1dyjB00.pdb
 180 175 0 0 0
SMALL
GASTEIGER

@<TRIPOS>ATOM
      1  N         15.5740   68.0580   53.4000 N.3     5  ILE5       -0.1231
      2  CA        15.0600   67.5020   52.1370 C.3     5  ILE5        0.1692
      3  C         16.1230   66.5820   51.6010 C.2     5  ILE5        0.2592
      4  O         17.2560   66.9900   51.4760 O.2     5  ILE5       -0.2718
      5  CB        14.4460   68.4610   51.1230 C.3     5  ILE5        0.0266
      6  CG1       13.9180   67.6930   49.8830 C.3     5  ILE5        0.0019
      7  CG2       15.4200   69.5900   50.7570 C.3     5  ILE5        0.0020
      8  CD1       12.9240   68.5450   49.0880 C.3     5  ILE5        0.0001
      9  N         15.8230   65.2950   51.3270 N.am    6  ALA6       -0.1966
     10  CA        16.8810   64.4090   50.8680 C.3     6  ALA6        0.1728
     11  C         16.2950   63.2730   50.0790 C.2     6  ALA6        0.2616
     12  O         15.0710   63.0240   50.1840 O.2     6  ALA6       -0.2715
     13  CB        17.4700   63.7690   52.1460 C.3     6  ALA6        0.0334
     14  N         17.1480   62.6180   49.2850 N.am    7  ALA7       -0.1977
     15  CA        16.6550   61.4360   48.4890 C.3     7  ALA7        0.1597
     16  C         17.4240   60.2720   49.0980 C.2     7  ALA7        0.2287
     17  O         18.6480   60.3350   49.2250 O.2     7  ALA7       -0.2864
     18  CB        17.0090   61.5920   47.0180 C.3     7  ALA7        0.0319
     19  N         22.6440   58.1190   50.7450 N.3    14  ILE14      -0.1245
     20  CA        22.3990   59.4410   50.2160 C.3    14  ILE14       0.1561
     21  C         23.5010   59.8750   49.2840 C.2    14  ILE14       0.2260
     22  O         23.2860   60.7210   48.4010 O.2    14  ILE14      -0.2867
     23  CB        22.1850   60.5480   51.2500 C.3    14  ILE14       0.0252
     24  CG1       23.4020   60.7560   52.1470 C.3    14  ILE14       0.0019
     25  CG2       20.8010   60.4940   51.9830 C.3    14  ILE14       0.0019
     26  CD1       23.1060   61.7720   53.2430 C.3    14  ILE14       0.0001
     27  N         21.0100   57.0840   39.0430 N.3    22  TRP22      -0.1241
     28  CA        19.5960   57.1500   38.7500 C.3    22  TRP22       0.1605
     29  C         19.2750   58.4450   38.0620 C.2    22  TRP22       0.2264
     30  O         20.0060   59.4470   38.1740 O.2    22  TRP22      -0.2867
     31  CB        18.6740   56.9020   39.9250 C.3    22  TRP22       0.0550
     32  CG        18.9130   57.8380   41.0710 C.ar   22  TRP22       0.0003
     33  CD1       18.7040   59.1660   41.0060 C.ar   22  TRP22       0.0946
     34  CD2       19.3490   57.5720   42.4340 C.ar   22  TRP22       0.0152
     35  NE1       18.9570   59.7460   42.2530 N.ar   22  TRP22      -0.2442
     36  CE2       19.3600   58.7930   43.1430 C.ar   22  TRP22       0.0810
     37  CE3       19.7040   56.4540   43.1680 C.ar   22  TRP22       0.0012
     38  CZ2       19.7030   58.8810   44.4890 C.ar   22  TRP22       0.0191
     39  CZ3       20.0750   56.5610   44.5120 C.ar   22  TRP22       0.0001
     40  CH2       20.0750   57.7570   45.1750 C.ar   22  TRP22       0.0015
     41  N         11.8250   63.6920   40.6140 N.3    27  ASP27      -0.1225
     42  CA        12.3580   63.9190   41.9350 C.3    27  ASP27       0.1805
     43  C         12.9340   65.3350   41.9310 C.2    27  ASP27       0.2598
     44  O         12.8090   66.1090   42.9020 O.2    27  ASP27      -0.2718
     45  CB        13.3320   62.7990   42.4290 C.3    27  ASP27       0.1424
     46  CG        13.8130   63.1050   43.8030 C.2    27  ASP27       0.3668
     47  OD1       13.1370   63.4440   44.7350 O.co2  27  ASP27      -0.2456
     48  OD2       15.0900   63.1050   43.9000 O.co2  27  ASP27      -0.2456
     49  N         13.5770   65.7060   40.8210 N.am   28  LEU28      -0.1966
     50  CA        14.1240   67.0440   40.8300 C.3    28  LEU28       0.1728
     51  C         13.0000   68.0680   40.8040 C.2    28  LEU28       0.2616
     52  O         13.0990   69.1390   41.4060 O.2    28  LEU28      -0.2715
     53  CB        15.1450   67.2700   39.6950 C.3    28  LEU28       0.0311
     54  CG        16.4280   66.4410   39.9920 C.3    28  LEU28       0.0022
     55  CD1       17.3900   66.5350   38.8180 C.3    28  LEU28       0.0001
     56  CD2       17.1630   66.7440   41.3210 C.3    28  LEU28       0.0001
     57  N         11.9150   67.7210   40.1460 N.am   29  ALA29      -0.1963
     58  CA        10.8010   68.6490   40.1120 C.3    29  ALA29       0.1728
     59  C         10.1830   68.8250   41.4890 C.2    29  ALA29       0.2616
     60  O          9.7470   69.8960   41.8550 O.2    29  ALA29      -0.2715
     61  CB         9.8230   68.2110   39.0390 C.3    29  ALA29       0.0334
     62  N         10.1380   67.7540   42.2800 N.am   30  TRP30      -0.1960
     63  CA         9.6070   67.8010   43.6410 C.3    30  TRP30       0.1771
     64  C         10.5390   68.6300   44.5840 C.2    30  TRP30       0.2620
     65  O         10.1080   69.3890   45.4610 O.2    30  TRP30      -0.2715
     66  CB         9.5440   66.3340   44.1310 C.3    30  TRP30       0.0590
     67  CG         9.5940   66.1000   45.5940 C.ar   30  TRP30       0.0006
     68  CD1       10.6750   65.8680   46.3480 C.ar   30  TRP30       0.0946
     69  CD2        8.4580   66.0750   46.5030 C.ar   30  TRP30       0.0152
     70  NE1       10.3240   65.6800   47.6750 N.ar   30  TRP30      -0.2442
     71  CE2        8.9550   65.7920   47.7920 C.ar   30  TRP30       0.0810
     72  CE3        7.1080   66.2520   46.3000 C.ar   30  TRP30       0.0012
     73  CZ2        8.1390   65.6660   48.9110 C.ar   30  TRP30       0.0191
     74  CZ3        6.2840   66.1100   47.4090 C.ar   30  TRP30       0.0001
     75  CH2        6.7960   65.8630   48.6680 C.ar   30  TRP30       0.0015
     76  N         11.8400   68.5170   44.3920 N.am   31  PHE31      -0.1960
     77  CA        12.8720   69.2250   45.1720 C.3    31  PHE31       0.1771
     78  C         12.7030   70.7220   44.8780 C.2    31  PHE31       0.2619
     79  O         12.6630   71.5770   45.7570 O.2    31  PHE31      -0.2715
     80  CB        14.3030   68.7920   44.7160 C.3    31  PHE31       0.0574
     81  CG        15.4300   69.5840   45.3970 C.ar   31  PHE31      -0.0200
     82  CD1       15.8900   70.7930   44.8710 C.ar   31  PHE31      -0.0042
     83  CD2       16.0310   69.1460   46.5810 C.ar   31  PHE31      -0.0042
     84  CE1       16.9210   71.5290   45.4910 C.ar   31  PHE31      -0.0003
     85  CE2       17.0330   69.8770   47.2330 C.ar   31  PHE31      -0.0003
     86  CZ        17.4920   71.0740   46.6750 C.ar   31  PHE31      -0.0000
     87  N         12.5490   71.0670   43.6140 N.am   32  LYS32      -0.1977
     88  CA        12.3480   72.4790   43.2500 C.3    32  LYS32       0.1596
     89  C         11.0880   73.0730   43.8400 C.2    32  LYS32       0.2287
     90  O         11.0790   74.1310   44.4630 O.2    32  LYS32      -0.2864
     91  CB        12.2230   72.6250   41.7470 C.3    32  LYS32       0.0298
     92  CG        12.4150   74.1160   41.3910 C.3    32  LYS32       0.0038
     93  CD        12.4640   74.2390   39.8860 C.3    32  LYS32       0.0206
     94  CE        11.7730   75.4670   39.3080 C.3    32  LYS32       0.1093
     95  NZ        11.9880   75.5790   37.8500 N.3    32  LYS32      -0.1314
     96  N         28.3400   69.4250   48.5920 N.3    46  THR46      -0.1218
     97  CA        27.0640   69.4740   47.8800 C.3    46  THR46       0.1862
     98  C         27.1190   70.6650   46.9380 C.2    46  THR46       0.2287
     99  O         26.6440   70.5830   45.8000 O.2    46  THR46      -0.2866
    100  CB        25.8420   69.5570   48.8120 C.3    46  THR46       0.1770
    101  OG1       25.7000   68.3210   49.4390 O.3    46  THR46      -0.2211
    102  CG2       24.5700   69.8900   48.0810 C.3    46  THR46       0.0375
    103  N         29.0470   70.0680   43.9040 N.3    49  SER49      -0.1202
    104  CA        28.3690   69.1260   43.0400 C.3    49  SER49       0.2020
    105  C         27.3620   69.8080   42.1730 C.2    49  SER49       0.2618
    106  O         27.2050   69.4530   41.0190 O.2    49  SER49      -0.2717
    107  CB        27.5560   68.0440   43.7570 C.3    49  SER49       0.2103
    108  OG        28.4450   67.1400   44.3990 O.3    49  SER49      -0.2182
    109  N         26.6730   70.7560   42.7730 N.am   50  ILE50      -0.1979
    110  CA        25.6410   71.4140   42.0320 C.3    50  ILE50       0.1595
    111  C         26.0510   72.1240   40.7730 C.2    50  ILE50       0.2287
    112  O         25.3600   72.0620   39.7650 O.2    50  ILE50      -0.2864
    113  CB        24.6550   72.1430   42.9190 C.3    50  ILE50       0.0276
    114  CG1       23.9920   71.1080   43.7980 C.3    50  ILE50       0.0022
    115  CG2       23.5690   72.8390   42.0810 C.3    50  ILE50       0.0022
    116  CD1       23.0770   71.7270   44.8560 C.3    50  ILE50       0.0001
    117  N         26.0750   75.3780   39.9530 N.3    52  ARG52      -0.1241
    118  CA        25.7810   76.7850   40.0940 C.3    52  ARG52       0.1606
    119  C         24.8230   76.9410   41.2510 C.2    52  ARG52       0.2264
    120  O         24.3520   75.9900   41.8750 O.2    52  ARG52      -0.2867
    121  CB        25.0280   77.2400   38.8330 C.3    52  ARG52       0.0562
    122  CG        24.1550   76.1080   38.2940 C.2    52  ARG52       0.0159
    123  CD        22.6290   76.2320   38.4720 C.2    52  ARG52       0.1886
    124  NE        21.8320   74.9770   38.3090 N.pl3  52  ARG52      -0.0578
    125  CZ        20.5340   74.8110   37.9080 C.cat  52  ARG52       0.5393
    126  NH1       19.7030   75.8050   37.5670 N.pl3  52  ARG52       0.1358
    127  NH2       20.0260   73.5750   37.8300 N.pl3  52  ARG52       0.1358
    128  N         21.3930   77.6460   42.9930 N.3    54  LEU54      -0.1231
    129  CA        20.0270   77.2200   42.6750 C.3    54  LEU54       0.1678
    130  C         19.1960   78.5110   42.3990 C.2    54  LEU54       0.2434
    131  O         19.0960   79.4020   43.2590 O.2    54  LEU54      -0.2733
    132  CB        19.4430   76.3550   43.8420 C.3    54  LEU54       0.0284
    133  CG        20.0410   74.9230   43.9030 C.3    54  LEU54       0.0019
    134  CD1       19.6930   74.2680   45.2650 C.3    54  LEU54       0.0001
    135  CD2       19.4700   74.1260   42.7390 C.3    54  LEU54       0.0001
    136  N         18.5980   78.6480   41.2200 N.am   55  PRO55      -0.2729
    137  CA        17.8420   79.8750   40.9430 C.3    55  PRO55       0.1401
    138  C         16.6750   80.1500   41.8120 C.2    55  PRO55       0.2269
    139  O         16.0010   79.2220   42.1630 O.2    55  PRO55      -0.2865
    140  CB        17.1600   79.6820   39.6000 C.3    55  PRO55       0.0296
    141  CG        17.3690   78.2400   39.1740 C.3    55  PRO55       0.0237
    142  CD        18.4350   77.6650   40.0990 C.3    55  PRO55       0.0939
    143  N         16.4420   80.9740   44.8640 N.3    57  ARG57      -0.1245
    144  CA        16.5300   80.6220   46.2770 C.3    57  ARG57       0.1563
    145  C         17.7890   81.3540   46.8140 C.2    57  ARG57       0.2260
    146  O         18.7360   81.6560   46.0820 O.2    57  ARG57      -0.2867
    147  CB        16.7030   79.1180   46.5070 C.3    57  ARG57       0.0307
    148  CG        15.3960   78.2980   46.5350 C.3    57  ARG57       0.0489
    149  CD        15.6100   76.9220   45.8460 C.3    57  ARG57       0.2205
    150  NE        15.7080   77.0160   44.3580 N.pl3  57  ARG57      -0.0865
    151  CZ        15.7490   75.9780   43.4960 C.cat  57  ARG57       0.5346
    152  NH1       15.6820   74.6850   43.9010 N.pl3  57  ARG57       0.1354
    153  NH2       15.8790   76.2210   42.1900 N.pl3  57  ARG57       0.1354
    154  N         19.8010   71.1510   52.5820 N.3    94  ILE94      -0.1245
    155  CA        19.8680   70.1550   51.5150 C.3    94  ILE94       0.1561
    156  C         21.0560   69.1730   51.4570 C.2    94  ILE94       0.2260
    157  O         21.4090   68.5220   50.4650 O.2    94  ILE94      -0.2867
    158  CB        19.6220   70.8590   50.1960 C.3    94  ILE94       0.0252
    159  CG1       20.8280   71.7730   49.9060 C.3    94  ILE94       0.0019
    160  CG2       18.4150   71.7930   50.3670 C.3    94  ILE94       0.0019
    161  CD1       21.0000   72.0810   48.4070 C.3    94  ILE94       0.0001
    162  N         23.3600   67.2830   57.3020 N.3   100  TYR100     -0.1241
    163  CA        22.0450   66.8170   57.7980 C.3   100  TYR100      0.1605
    164  C         22.0650   66.4530   59.2970 C.2   100  TYR100      0.2264
    165  O         21.1440   66.6620   60.0920 O.2   100  TYR100     -0.2867
    166  CB        21.5930   65.5320   57.0630 C.3   100  TYR100      0.0534
    167  CG        21.1180   65.6590   55.6420 C.ar  100  TYR100     -0.0201
    168  CD1       20.1770   66.6360   55.3230 C.ar  100  TYR100     -0.0009
    169  CD2       21.6170   64.8070   54.6520 C.ar  100  TYR100     -0.0009
    170  CE1       19.7810   66.7320   53.9980 C.ar  100  TYR100      0.0417
    171  CE2       21.1970   64.8770   53.3250 C.ar  100  TYR100      0.0417
    172  CZ        20.2780   65.8850   53.0130 C.ar  100  TYR100      0.1957
    173  OH        19.7730   66.0450   51.7380 O.3   100  TYR100     -0.2866
    174  N         12.4240   61.4220   49.6440 N.3   113  THR113     -0.1218
    175  CA        12.1940   60.6960   48.4010 C.3   113  THR113      0.1862
    176  C         12.8490   59.3340   48.6500 C.2   113  THR113      0.2287
    177  O         14.0800   59.2040   48.7770 O.2   113  THR113     -0.2866
    178  CB        12.7930   61.3360   47.1500 C.3   113  THR113      0.1770
    179  OG1       12.2270   62.6140   46.9770 O.3   113  THR113     -0.2211
    180  CG2       12.4360   60.4220   45.9660 C.3   113  THR113      0.0375
@<TRIPOS>BOND
     1   126   125    1
     2   127   125    1
     3    95    94    1
     4   125   124    2
     5    29    30    2
     6    29    28    1
     7   122   123    2
     8   122   121    1
     9   124   123    1
    10    28    27    1
    11    28    31    1
    12    55    54    1
    13   121   118    1
    14    61    58    1
    15   141   140    1
    16   141   142    1
    17    94    93    1
    18   140   137    1
    19    53    54    1
    20    53    50    1
    21   112   111    2
    22    93    92    1
    23    31    32    1
    24   117   118    1
    25    54    56    1
    26   118   119    1
    27   142   136    1
    28    58    57    1
    29    58    59    1
    30    57    51   am
    31    41    42    1
    32   111   110    1
    33    51    50    1
    34    51    52    2
    35    49    50    1
    36    49    43   am
    37   137   136    1
    38   137   138    1
    39    33    32   ar
    40    33    35   ar
    41   106   105    2
    42    32    34   ar
    43   136   130   am
    44   119   120    2
    45    92    91    1
    46    59    60    2
    47    59    62   am
    48    91    88    1
    49   138   139    2
    50    43    42    1
    51    43    44    2
    52    42    45    1
    53   110   109    1
    54   110   113    1
    55   115   113    1
    56   105   109   am
    57   105   104    1
    58   153   151    1
    59    35    36   ar
    60    62    63    1
    61   130   129    1
    62   130   131    2
    63    45    46    1
    64    34    36   ar
    65    34    37   ar
    66   129   128    1
    67   129   132    1
    68   135   133    1
    69   113   114    1
    70   104   107    1
    71   104   103    1
    72    36    38   ar
    73    37    39   ar
    74    88    87    1
    75    88    89    1
    76   151   152    1
    77   151   150    2
    78    87    78   am
    79    63    66    1
    80    63    64    1
    81   107   108    1
    82   114   116    1
    83    46    48   ar
    84    46    47   ar
    85    89    90    2
    86   132   133    1
    87   133   134    1
    88    66    67    1
    89   150   149    1
    90    76    64   am
    91    76    77    1
    92    38    40   ar
    93    39    40   ar
    94    64    65    2
    95    80    77    1
    96    80    81    1
    97   143   144    1
    98    82    81   ar
    99    82    84   ar
   100    78    77    1
   101    78    79    2
   102    81    83   ar
   103    84    86   ar
   104    67    68   ar
   105    67    69   ar
   106    99    98    2
   107   149   148    1
   108   180   178    1
   109   146   145    2
   110   144   147    1
   111   144   145    1
   112    72    69   ar
   113    72    74   ar
   114    68    70   ar
   115    69    71   ar
   116   147   148    1
   117    83    85   ar
   118    86    85   ar
   119    98    97    1
   120   179   178    1
   121    18    15    1
   122   178   175    1
   123    74    75   ar
   124    70    71   ar
   125    71    73   ar
   126    97    96    1
   127    97   100    1
   128   102   100    1
   129   175   176    1
   130   175   174    1
   131    22    21    2
   132   161   159    1
   133    15    16    1
   134    15    14    1
   135   176   177    2
   136    75    73   ar
   137   100   101    1
   138     8     6    1
   139    16    17    2
   140    21    20    1
   141    14    11   am
   142     6     5    1
   143   159   158    1
   144    11    12    2
   145    11    10    1
   146   158   160    1
   147   158   155    1
   148    20    19    1
   149    20    23    1
   150   157   156    2
   151     7     5    1
   152    10     9    1
   153    10    13    1
   154     5     2    1
   155    23    25    1
   156    23    24    1
   157     9     3   am
   158   156   155    1
   159     4     3    2
   160   155   154    1
   161     3     2    1
   162   173   172    1
   163     2     1    1
   164    24    26    1
   165   172   171   ar
   166   172   170   ar
   167   171   169   ar
   168   170   168   ar
   169   169   167   ar
   170   168   167   ar
   171   167   166    1
   172   166   163    1
   173   162   163    1
   174   163   164    1
   175   164   165    2
