@<TRIPOS>MOLECULE
tmp/1dytA00.pdb
 96 91 0 0 0
SMALL
GASTEIGER

@<TRIPOS>ATOM
      1  N         13.0500   31.0650   78.5470 N.3    45  ARG45      -0.1231
      2  CA        12.4090   31.1740   77.2500 C.3    45  ARG45       0.1694
      3  C         10.9390   31.4390   77.5300 C.2    45  ARG45       0.2592
      4  O         10.1100   30.5300   77.5680 O.2    45  ARG45      -0.2718
      5  CB        12.6800   29.8890   76.4530 C.3    45  ARG45       0.0321
      6  CG        14.1800   29.7750   76.1900 C.3    45  ARG45       0.0489
      7  CD        14.5910   28.5330   75.3970 C.3    45  ARG45       0.2205
      8  NE        14.0270   28.5580   74.0430 N.pl3  45  ARG45      -0.0865
      9  CZ        14.0550   27.5390   73.1870 C.cat  45  ARG45       0.5346
     10  NH1       14.6200   26.3890   73.5310 N.pl3  45  ARG45       0.1354
     11  NH2       13.5300   27.6900   71.9550 N.pl3  45  ARG45       0.1354
     12  N         10.6600   32.7090   77.7630 N.am   46  THR46      -0.1953
     13  CA         9.3280   33.1150   78.1300 C.3    46  THR46       0.1897
     14  C          9.0910   34.5730   77.7120 C.2    46  THR46       0.2313
     15  O          9.7660   35.1040   76.8020 O.2    46  THR46      -0.2863
     16  CB         9.1990   32.9380   79.6540 C.3    46  THR46       0.1794
     17  OG1        7.8710   33.2600   80.0730 O.3    46  THR46      -0.2208
     18  CG2       10.1690   33.8720   80.3840 C.3    46  THR46       0.0378
     19  N          4.7560   37.2430   81.2890 N.3    50  ASN50      -0.1240
     20  CA         4.7550   36.0200   82.0530 C.3    50  ASN50       0.1653
     21  C          5.5470   36.1080   83.3450 C.2    50  ASN50       0.2266
     22  O          5.1650   35.5210   84.3630 O.2    50  ASN50      -0.2867
     23  CB         5.2910   34.8430   81.2440 C.3    50  ASN50       0.1155
     24  CG         4.3310   34.3670   80.1790 C.2    50  ASN50       0.2627
     25  OD1        3.2290   34.9330   79.9810 O.2    50  ASN50      -0.2716
     26  ND2        4.7410   33.3120   79.4720 N.am   50  ASN50      -0.0877
     27  N          3.7630   38.2040   85.8860 N.3    53  ASN53      -0.1225
     28  CA         2.7260   37.4630   86.5860 C.3    53  ASN53       0.1785
     29  C          3.2120   36.4500   87.6490 C.2    53  ASN53       0.2597
     30  O          2.4860   36.1490   88.6180 O.2    53  ASN53      -0.2718
     31  CB         1.7470   36.9130   85.5460 C.3    53  ASN53       0.1169
     32  CG         0.8870   38.0620   84.9460 C.2    53  ASN53       0.2627
     33  OD1        0.0640   38.6400   85.6510 O.2    53  ASN53      -0.2716
     34  ND2        1.1410   38.4440   83.6930 N.am   53  ASN53      -0.0877
     35  N          4.4600   35.9900   87.5280 N.am   54  VAL54      -0.1980
     36  CA         5.0400   35.1080   88.5430 C.3    54  VAL54       0.1595
     37  C          5.2740   35.9710   89.7980 C.2    54  VAL54       0.2287
     38  O          5.1850   35.4950   90.9380 O.2    54  VAL54      -0.2864
     39  CB         6.3790   34.4760   88.0430 C.3    54  VAL54       0.0276
     40  CG1        7.2450   33.9660   89.2450 C.3    54  VAL54       0.0022
     41  CG2        6.0750   33.3350   87.1040 C.3    54  VAL54       0.0022
     42  N          2.8410   35.4690   92.3960 N.3    57  ASN57      -0.1240
     43  CA         2.8020   34.2350   93.1620 C.3    57  ASN57       0.1653
     44  C          3.1160   34.5480   94.6230 C.2    57  ASN57       0.2266
     45  O          3.5160   35.6710   94.9420 O.2    57  ASN57      -0.2867
     46  CB         3.7810   33.2140   92.5550 C.3    57  ASN57       0.1155
     47  CG         3.2770   32.6730   91.2250 C.2    57  ASN57       0.2627
     48  OD1        2.1270   32.9520   90.8490 O.2    57  ASN57      -0.2716
     49  ND2        4.0920   31.9060   90.5180 N.am   57  ASN57      -0.0877
     50  N          8.1050   30.1370   90.0040 N.3    74  SER74      -0.1202
     51  CA         7.1880   29.7920   88.9190 C.3    74  SER74       0.2020
     52  C          6.4410   28.5070   89.2920 C.2    74  SER74       0.2619
     53  O          6.9710   27.6400   89.9760 O.2    74  SER74      -0.2717
     54  CB         7.9390   29.5960   87.5910 C.3    74  SER74       0.2103
     55  OG         8.8380   28.5020   87.6310 O.3    74  SER74      -0.2182
     56  N          5.1860   28.3990   88.8700 N.am   75  ARG75      -0.1965
     57  CA         4.3990   27.2050   89.2000 C.3    75  ARG75       0.1729
     58  C          4.7830   26.0570   88.2990 C.2    75  ARG75       0.2616
     59  O          4.5860   24.8930   88.6430 O.2    75  ARG75      -0.2715
     60  CB         2.8890   27.4850   89.0210 C.3    75  ARG75       0.0348
     61  CG         2.2900   28.5370   89.9600 C.3    75  ARG75       0.0492
     62  CD         2.1490   28.0200   91.3830 C.3    75  ARG75       0.2205
     63  NE         1.1140   26.9920   91.5670 N.pl3  75  ARG75      -0.0865
     64  CZ        -0.1830   27.2490   91.7320 C.cat  75  ARG75       0.5346
     65  NH1       -0.6220   28.5060   91.7260 N.pl3  75  ARG75       0.1354
     66  NH2       -1.0460   26.2500   91.9070 N.pl3  75  ARG75       0.1354
     67  N          5.3020   26.3790   87.1140 N.am   76  PHE76      -0.1974
     68  CA         5.6950   25.3690   86.1630 C.3    76  PHE76       0.1639
     69  C          7.1490   25.5050   85.7840 C.2    76  PHE76       0.2290
     70  O          7.7480   26.5780   85.9560 O.2    76  PHE76      -0.2864
     71  CB         4.8840   25.4880   84.8720 C.3    76  PHE76       0.0560
     72  CG         3.3810   25.3550   85.0570 C.ar   76  PHE76      -0.0200
     73  CD1        2.7700   24.1080   84.9950 C.ar   76  PHE76      -0.0042
     74  CD2        2.5960   26.4750   85.2740 C.ar   76  PHE76      -0.0042
     75  CE1        1.3660   23.9810   85.1540 C.ar   76  PHE76      -0.0003
     76  CE2        1.1800   26.3610   85.4330 C.ar   76  PHE76      -0.0003
     77  CZ         0.5780   25.1110   85.3740 C.ar   76  PHE76      -0.0000
     78  N          9.9590   25.9180   83.0480 N.3    78  VAL78      -0.1245
     79  CA         9.9370   26.5930   81.7510 C.3    78  VAL78       0.1561
     80  C         11.2370   26.3090   81.0070 C.2    78  VAL78       0.2260
     81  O         12.2730   26.1070   81.6320 O.2    78  VAL78      -0.2867
     82  CB         9.7460   28.1070   81.9420 C.3    78  VAL78       0.0252
     83  CG1        8.5700   28.3350   82.9020 C.3    78  VAL78       0.0019
     84  CG2       11.0100   28.7410   82.4700 C.3    78  VAL78       0.0019
     85  N         11.7770   28.6630   87.9580 N.3   107  TYR107     -0.1241
     86  CA        12.6400   29.8200   88.1990 C.3   107  TYR107      0.1605
     87  C         12.1100   30.5940   89.3750 C.2   107  TYR107      0.2264
     88  O         10.9190   30.5020   89.6870 O.2   107  TYR107     -0.2867
     89  CB        12.7400   30.7290   86.9720 C.3   107  TYR107      0.0534
     90  CG        11.4840   31.4020   86.4330 C.ar  107  TYR107     -0.0201
     91  CD1       11.0400   32.5980   86.9650 C.ar  107  TYR107     -0.0009
     92  CD2       10.8180   30.8870   85.3140 C.ar  107  TYR107     -0.0009
     93  CE1        9.9860   33.2890   86.4130 C.ar  107  TYR107      0.0417
     94  CE2        9.7400   31.5760   84.7500 C.ar  107  TYR107      0.0417
     95  CZ         9.3450   32.7730   85.3100 C.ar  107  TYR107      0.1957
     96  OH         8.3050   33.4460   84.7450 O.3   107  TYR107     -0.2866
@<TRIPOS>BOND
     1    11     9    1
     2     9    10    1
     3     9     8    2
     4     8     7    1
     5     7     6    1
     6     6     5    1
     7     5     2    1
     8    15    14    2
     9     2     3    1
    10     2     1    1
    11     3     4    2
    12     3    12   am
    13    14    13    1
    14    12    13    1
    15    13    16    1
    16    26    24   am
    17    16    17    1
    18    16    18    1
    19    25    24    2
    20    24    23    1
    21    80    81    2
    22    80    79    1
    23    23    20    1
    24    19    20    1
    25    79    82    1
    26    79    78    1
    27    82    84    1
    28    82    83    1
    29    20    21    1
    30    21    22    2
    31    34    32   am
    32    96    95    1
    33    94    95   ar
    34    94    92   ar
    35    71    72    1
    36    71    68    1
    37    32    31    1
    38    32    33    2
    39    73    72   ar
    40    73    75   ar
    41    72    74   ar
    42    75    77   ar
    43    74    76   ar
    44    95    93   ar
    45    92    90   ar
    46    77    76   ar
    47    31    28    1
    48    69    70    2
    49    69    68    1
    50    27    28    1
    51    68    67    1
    52    93    91   ar
    53    90    91   ar
    54    90    89    1
    55    28    29    1
    56    89    86    1
    57    41    39    1
    58    67    58   am
    59    35    29   am
    60    35    36    1
    61    54    55    1
    62    54    51    1
    63    29    30    2
    64    85    86    1
    65    39    36    1
    66    39    40    1
    67    86    87    1
    68    58    59    2
    69    58    57    1
    70    36    37    1
    71    56    57    1
    72    56    52   am
    73    51    52    1
    74    51    50    1
    75    60    57    1
    76    60    61    1
    77    52    53    2
    78    87    88    2
    79    37    38    2
    80    61    62    1
    81    49    47   am
    82    48    47    2
    83    47    46    1
    84    62    63    1
    85    63    64    2
    86    65    64    1
    87    64    66    1
    88    42    43    1
    89    46    43    1
    90    43    44    1
    91    44    45    2
