@<TRIPOS>MOLECULE
tmp/1dzeA04.pdb
 80 79 0 0 0
SMALL
GASTEIGER

@<TRIPOS>ATOM
      1  N         45.2160   11.1610    6.7360 N.3   126  TYR126     -0.1227
      2  CA        43.9780   10.6540    7.3260 C.3   126  TYR126      0.1736
      3  C         44.1060    9.6200    8.4380 C.2   126  TYR126      0.2596
      4  O         43.4510    9.7370    9.4730 O.2   126  TYR126     -0.2718
      5  CB        43.0410   10.1050    6.2550 C.3   126  TYR126      0.0548
      6  CG        41.6910    9.7510    6.8240 C.ar  126  TYR126     -0.0200
      7  CD1       40.8750   10.7370    7.3660 C.ar  126  TYR126     -0.0009
      8  CD2       41.2460    8.4310    6.8630 C.ar  126  TYR126     -0.0009
      9  CE1       39.6540   10.4300    7.9330 C.ar  126  TYR126      0.0417
     10  CE2       40.0190    8.1090    7.4320 C.ar  126  TYR126      0.0417
     11  CZ        39.2320    9.1180    7.9650 C.ar  126  TYR126      0.1957
     12  OH        38.0240    8.8220    8.5440 O.3   126  TYR126     -0.2866
     13  N         44.8650    8.5630    8.1740 N.am  127  SER127     -0.1952
     14  CA        45.0770    7.4880    9.1430 C.3   127  SER127      0.1924
     15  C         45.5970    7.9920   10.4860 C.2   127  SER127      0.2314
     16  O         45.0140    7.7120   11.5370 O.2   127  SER127     -0.2863
     17  CB        46.0640    6.4730    8.5690 C.3   127  SER127      0.2116
     18  OG        46.5240    5.5630    9.5570 O.3   127  SER127     -0.2180
     19  N         43.9240    9.4670   13.6040 N.3   130  PHE130     -0.1227
     20  CA        43.3690    8.5450   14.5900 C.3   130  PHE130      0.1736
     21  C         44.2950    8.1250   15.7090 C.2   130  PHE130      0.2595
     22  O         43.8340    7.6660   16.7550 O.2   130  PHE130     -0.2718
     23  CB        42.7700    7.3550   13.8940 C.3   130  PHE130      0.0547
     24  CG        41.5380    7.6950   13.1560 C.ar  130  PHE130     -0.0202
     25  CD1       40.3520    7.9050   13.8500 C.ar  130  PHE130     -0.0042
     26  CD2       41.5640    7.9100   11.7850 C.ar  130  PHE130     -0.0042
     27  CE1       39.2030    8.3110   13.1840 C.ar  130  PHE130     -0.0003
     28  CE2       40.4160    8.3160   11.1100 C.ar  130  PHE130     -0.0003
     29  CZ        39.2350    8.5240   11.8130 C.ar  130  PHE130     -0.0000
     30  N         45.5980    8.2190   15.4730 N.am  131  VAL131     -0.1980
     31  CA        46.5750    7.8990   16.5120 C.3   131  VAL131      0.1595
     32  C         46.4570    8.9570   17.6080 C.2   131  VAL131      0.2287
     33  O         46.3480    8.6300   18.7870 O.2   131  VAL131     -0.2864
     34  CB        48.0160    7.9540   15.9910 C.3   131  VAL131      0.0276
     35  CG1       48.9960    7.7500   17.1450 C.3   131  VAL131      0.0022
     36  CG2       48.2280    6.9070   14.9170 C.3   131  VAL131      0.0022
     37  N         44.0360   10.9610   18.1590 N.3   133  TRP133     -0.1227
     38  CA        42.7350   10.8990   18.7960 C.3   133  TRP133      0.1737
     39  C         42.8550    9.8880   19.9350 C.2   133  TRP133      0.2595
     40  O         42.3170   10.0970   21.0170 O.2   133  TRP133     -0.2718
     41  CB        41.6690   10.4430   17.8050 C.3   133  TRP133      0.0564
     42  CG        40.3560   10.2090   18.4520 C.ar  133  TRP133      0.0003
     43  CD1       39.4010   11.1390   18.7300 C.ar  133  TRP133      0.0946
     44  CD2       39.8630    8.9640   18.9500 C.ar  133  TRP133      0.0152
     45  NE1       38.3420   10.5530   19.3760 N.ar  133  TRP133     -0.2442
     46  CE2       38.6010    9.2160   19.5270 C.ar  133  TRP133      0.0810
     47  CE3       40.3710    7.6580   18.9730 C.ar  133  TRP133      0.0012
     48  CZ2       37.8340    8.2090   20.1180 C.ar  133  TRP133      0.0191
     49  CZ3       39.6110    6.6580   19.5590 C.ar  133  TRP133      0.0001
     50  CH2       38.3560    6.9390   20.1270 C.ar  133  TRP133      0.0015
     51  N         43.5680    8.7950   19.6740 N.am  134  ALA134     -0.1980
     52  CA        43.7840    7.7430   20.6700 C.3   134  ALA134      0.1597
     53  C         44.6210    8.2320   21.8460 C.2   134  ALA134      0.2287
     54  O         44.3650    7.8610   22.9900 O.2   134  ALA134     -0.2864
     55  CB        44.4490    6.5480   20.0310 C.3   134  ALA134      0.0319
     56  N         35.2430   11.8100   16.6110 N.3   185  LEU185     -0.1245
     57  CA        35.3970   10.5960   15.8190 C.3   185  LEU185      0.1561
     58  C         34.3600   10.4390   14.7070 C.2   185  LEU185      0.2260
     59  O         34.7020   10.0110   13.6060 O.2   185  LEU185     -0.2867
     60  CB        35.4020    9.3580   16.7240 C.3   185  LEU185      0.0270
     61  CG        35.8870    8.0970   16.0040 C.3   185  LEU185      0.0019
     62  CD1       37.3560    8.2350   15.6360 C.3   185  LEU185      0.0001
     63  CD2       35.6790    6.8830   16.8920 C.3   185  LEU185      0.0001
     64  N         36.3500    9.8700   11.3550 N.3   191  ALA191     -0.1231
     65  CA        35.6080    8.9140   10.5270 C.3   191  ALA191      0.1694
     66  C         34.2720    9.5160   10.1800 C.2   191  ALA191      0.2593
     67  O         33.2790    9.2050   10.8300 O.2   191  ALA191     -0.2718
     68  CB        35.3860    7.6220   11.2950 C.3   191  ALA191      0.0304
     69  N         34.2500   10.3680    9.1600 N.am  192  GLY192     -0.1942
     70  CA        33.0250   11.0350    8.7550 C.3   192  GLY192      0.2014
     71  C         31.7880   10.1600    8.7000 C.2   192  GLY192      0.2638
     72  O         31.6350    9.3320    7.8010 O.2   192  GLY192     -0.2714
     73  N         30.9060   10.3450    9.6740 N.am  193  ILE193     -0.1977
     74  CA        29.6550    9.5990    9.7720 C.3   193  ILE193      0.1596
     75  C         28.5390   10.6240    9.9350 C.2   193  ILE193      0.2287
     76  O         27.3740   10.3500    9.6370 O.2   193  ILE193     -0.2864
     77  CB        29.6490    8.6980   11.0130 C.3   193  ILE193      0.0276
     78  CG1       30.8050    7.7060   10.9440 C.3   193  ILE193      0.0022
     79  CG2       28.3220    7.9570   11.1260 C.3   193  ILE193      0.0022
     80  CD1       31.1690    7.0970   12.2690 C.3   193  ILE193      0.0001
@<TRIPOS>BOND
     1     5     6    1
     2     5     2    1
     3     1     2    1
     4     6     8   ar
     5     6     7   ar
     6     8    10   ar
     7     2     3    1
     8     7     9   ar
     9    10    11   ar
    10    72    71    2
    11     9    11   ar
    12    11    12    1
    13    13     3   am
    14    13    14    1
    15     3     4    2
    16    17    14    1
    17    17    18    1
    18    71    70    1
    19    71    73   am
    20    70    69    1
    21    14    15    1
    22    69    66   am
    23    76    75    2
    24    73    74    1
    25    74    75    1
    26    74    77    1
    27    66    65    1
    28    66    67    2
    29    15    16    2
    30    65    68    1
    31    65    64    1
    32    78    77    1
    33    78    80    1
    34    77    79    1
    35    28    26   ar
    36    28    29   ar
    37    26    24   ar
    38    29    27   ar
    39    24    25   ar
    40    24    23    1
    41    27    25   ar
    42    19    20    1
    43    59    58    2
    44    23    20    1
    45    20    21    1
    46    58    57    1
    47    36    34    1
    48    30    21   am
    49    30    31    1
    50    62    61    1
    51    21    22    2
    52    57    56    1
    53    57    60    1
    54    34    31    1
    55    34    35    1
    56    61    60    1
    57    61    63    1
    58    31    32    1
    59    32    33    2
    60    41    42    1
    61    41    38    1
    62    37    38    1
    63    42    43   ar
    64    42    44   ar
    65    43    45   ar
    66    38    39    1
    67    44    47   ar
    68    44    46   ar
    69    47    49   ar
    70    45    46   ar
    71    46    48   ar
    72    49    50   ar
    73    51    39   am
    74    51    52    1
    75    39    40    2
    76    55    52    1
    77    48    50   ar
    78    52    53    1
    79    53    54    2
