@<TRIPOS>MOLECULE
tmp/1dzeA05.pdb
 89 82 0 0 0
SMALL
GASTEIGER

@<TRIPOS>ATOM
      1  N         24.9180   32.8180   23.5520 N.3    14  LEU14      -0.1245
      2  CA        24.8320   32.1740   24.8540 C.3    14  LEU14       0.1561
      3  C         26.0710   32.4060   25.7140 C.2    14  LEU14       0.2260
      4  O         25.9450   32.8210   26.8650 O.2    14  LEU14      -0.2867
      5  CB        24.5470   30.6790   24.7010 C.3    14  LEU14       0.0270
      6  CG        23.1610   30.3210   24.1560 C.3    14  LEU14       0.0019
      7  CD1       23.0270   28.8170   24.0410 C.3    14  LEU14       0.0001
      8  CD2       22.0750   30.8750   25.0630 C.3    14  LEU14       0.0001
      9  N         26.0980   35.9460   26.8110 N.3    17  LEU17      -0.1231
     10  CA        25.1410   36.1830   27.8800 C.3    17  LEU17       0.1693
     11  C         25.6100   35.4690   29.1490 C.2    17  LEU17       0.2592
     12  O         25.4450   35.9860   30.2560 O.2    17  LEU17      -0.2718
     13  CB        23.7350   35.7360   27.4490 C.3    17  LEU17       0.0284
     14  CG        23.1010   36.5880   26.3340 C.3    17  LEU17       0.0019
     15  CD1       21.8450   35.9190   25.7930 C.3    17  LEU17       0.0001
     16  CD2       22.7890   37.9890   26.8490 C.3    17  LEU17       0.0001
     17  N         26.2120   34.2950   28.9750 N.am   18  GLY18      -0.1957
     18  CA        26.7270   33.5300   30.0980 C.3    18  GLY18       0.1869
     19  C         27.7930   34.2700   30.8860 C.2    18  GLY18       0.2309
     20  O         27.9160   34.0750   32.0970 O.2    18  GLY18      -0.2863
     21  N         28.0660   37.7140   30.9740 N.3    20  LEU20      -0.1231
     22  CA        27.3650   38.8460   31.5750 C.3    20  LEU20       0.1693
     23  C         26.6620   38.4810   32.8710 C.2    20  LEU20       0.2592
     24  O         26.6590   39.2620   33.8230 O.2    20  LEU20      -0.2718
     25  CB        26.3360   39.4060   30.5980 C.3    20  LEU20       0.0284
     26  CG        26.6940   40.7430   29.9580 C.3    20  LEU20       0.0019
     27  CD1       28.0100   40.6360   29.2030 C.3    20  LEU20       0.0001
     28  CD2       25.5690   41.1600   29.0330 C.3    20  LEU20       0.0001
     29  N         26.0220   37.3180   32.8720 N.am   21  TYR21      -0.1976
     30  CA        25.3010   36.8240   34.0350 C.3    21  TYR21       0.1639
     31  C         26.2090   36.6350   35.2410 C.2    21  TYR21       0.2290
     32  O         25.8880   37.0910   36.3360 O.2    21  TYR21      -0.2864
     33  CB        24.6150   35.4990   33.7080 C.3    21  TYR21       0.0560
     34  CG        24.0900   34.7780   34.9260 C.ar   21  TYR21      -0.0198
     35  CD1       23.0220   35.2910   35.6540 C.ar   21  TYR21      -0.0009
     36  CD2       24.6730   33.5920   35.3600 C.ar   21  TYR21      -0.0009
     37  CE1       22.5450   34.6400   36.7840 C.ar   21  TYR21       0.0417
     38  CE2       24.2070   32.9330   36.4910 C.ar   21  TYR21       0.0417
     39  CZ        23.1420   33.4620   37.1970 C.ar   21  TYR21       0.1957
     40  OH        22.6750   32.8160   38.3170 O.3    21  TYR21      -0.2866
     41  N         27.7750   40.0400   36.5740 N.3    24  VAL24      -0.1231
     42  CA        26.7610   40.7550   37.3420 C.3    24  VAL24       0.1692
     43  C         26.4410   40.0100   38.6390 C.2    24  VAL24       0.2591
     44  O         26.2120   40.6250   39.6830 O.2    24  VAL24      -0.2718
     45  CB        25.4710   40.9790   36.4900 C.3    24  VAL24       0.0266
     46  CG1       24.3670   41.6000   37.3240 C.3    24  VAL24       0.0020
     47  CG2       25.7800   41.8870   35.3110 C.3    24  VAL24       0.0020
     48  N         26.4420   38.6840   38.5670 N.am   25  LYS25      -0.1980
     49  CA        26.1550   37.8510   39.7250 C.3    25  LYS25       0.1596
     50  C         27.2250   37.9670   40.8180 C.2    25  LYS25       0.2287
     51  O         26.9080   38.2890   41.9670 O.2    25  LYS25      -0.2864
     52  CB        25.9820   36.3970   39.2800 C.3    25  LYS25       0.0298
     53  CG        25.5520   35.4390   40.3660 C.3    25  LYS25       0.0038
     54  CD        25.2530   34.0710   39.7770 C.3    25  LYS25       0.0206
     55  CE        25.0200   33.0330   40.8580 C.3    25  LYS25       0.1093
     56  NZ        24.5270   33.6350   42.1300 N.3    25  LYS25      -0.1314
     57  N         28.2420   24.8290   25.5520 N.3   208  VAL208     -0.1245
     58  CA        27.3630   25.6280   26.3910 C.3   208  VAL208      0.1561
     59  C         27.1220   24.9300   27.7220 C.2   208  VAL208      0.2260
     60  O         27.2300   25.5510   28.7740 O.2   208  VAL208     -0.2867
     61  CB        26.0140   25.9330   25.7120 C.3   208  VAL208      0.0252
     62  CG1       25.1070   26.6890   26.6790 C.3   208  VAL208      0.0019
     63  CG2       26.2370   26.7670   24.4610 C.3   208  VAL208      0.0019
     64  N         28.7710   27.1310   30.4100 N.3   212  VAL212     -0.1245
     65  CA        27.7060   27.8640   31.0990 C.3   212  VAL212      0.1561
     66  C         26.9040   27.0380   32.1150 C.2   212  VAL212      0.2260
     67  O         26.6630   27.5040   33.2280 O.2   212  VAL212     -0.2867
     68  CB        26.7170   28.5220   30.1040 C.3   212  VAL212      0.0252
     69  CG1       25.8350   29.5210   30.8370 C.3   212  VAL212      0.0019
     70  CG2       27.4660   29.2030   28.9710 C.3   212  VAL212      0.0019
     71  N         26.5670   27.5630   36.1920 N.3   216  LEU216     -0.1245
     72  CA        25.3140   27.7880   36.8980 C.3   216  LEU216      0.1561
     73  C         25.2260   26.8580   38.1030 C.2   216  LEU216      0.2260
     74  O         25.0150   27.3140   39.2250 O.2   216  LEU216     -0.2867
     75  CB        24.1350   27.5490   35.9570 C.3   216  LEU216      0.0270
     76  CG        23.9130   28.6550   34.9320 C.3   216  LEU216      0.0019
     77  CD1       22.9810   28.1780   33.8300 C.3   216  LEU216      0.0001
     78  CD2       23.3500   29.8610   35.6510 C.3   216  LEU216      0.0001
     79  N         25.5930   28.9660   41.5880 N.3   220  ARG220     -0.1245
     80  CA        24.3170   29.1050   42.2740 C.3   220  ARG220      0.1563
     81  C         24.1970   28.2290   43.5220 C.2   220  ARG220      0.2260
     82  O         23.1010   28.0360   44.0670 O.2   220  ARG220     -0.2867
     83  CB        23.1760   28.8460   41.2940 C.3   220  ARG220      0.0307
     84  CG        23.2450   29.7390   40.0570 C.3   220  ARG220      0.0489
     85  CD        22.0360   29.5560   39.1580 C.3   220  ARG220      0.2205
     86  NE        20.7910   29.9550   39.8140 N.pl3 220  ARG220     -0.0865
     87  CZ        19.7810   29.1310   40.0750 C.cat 220  ARG220      0.5346
     88  NH1       19.8550   27.8480   39.7430 N.pl3 220  ARG220      0.1354
     89  NH2       18.6850   29.5960   40.6600 N.pl3 220  ARG220      0.1354
@<TRIPOS>BOND
     1     1     2    1
     2     7     6    1
     3     6     5    1
     4     6     8    1
     5    63    61    1
     6     5     2    1
     7     2     3    1
     8    57    58    1
     9    61    58    1
    10    61    62    1
    11     3     4    2
    12    15    14    1
    13    14    16    1
    14    14    13    1
    15    58    59    1
    16     9    10    1
    17    13    10    1
    18    59    60    2
    19    10    11    1
    20    70    68    1
    21    17    11   am
    22    17    18    1
    23    28    26    1
    24    11    12    2
    25    27    26    1
    26    26    25    1
    27    18    19    1
    28    68    69    1
    29    68    65    1
    30    64    65    1
    31    25    22    1
    32    19    20    2
    33    21    22    1
    34    65    66    1
    35    22    23    1
    36    66    67    2
    37    23    29   am
    38    23    24    2
    39    29    30    1
    40    33    30    1
    41    33    34    1
    42    77    76    1
    43    30    31    1
    44    34    36   ar
    45    34    35   ar
    46    76    78    1
    47    76    75    1
    48    31    32    2
    49    47    45    1
    50    36    38   ar
    51    35    37   ar
    52    75    72    1
    53    71    72    1
    54    45    46    1
    55    45    42    1
    56    38    39   ar
    57    41    42    1
    58    37    39   ar
    59    72    73    1
    60    39    40    1
    61    42    43    1
    62    73    74    2
    63    48    43   am
    64    48    49    1
    65    43    44    2
    66    85    86    1
    67    85    84    1
    68    52    49    1
    69    52    53    1
    70    49    50    1
    71    88    87    1
    72    54    53    1
    73    54    55    1
    74    86    87    2
    75    84    83    1
    76    87    89    1
    77    50    51    2
    78    55    56    1
    79    83    80    1
    80    79    80    1
    81    80    81    1
    82    81    82    2
