@<TRIPOS>MOLECULE
tmp/1dzeA03.pdb
 121 116 0 0 0
SMALL
GASTEIGER

@<TRIPOS>ATOM
      1  N         32.5450   27.0600    5.3220 N.3     1  GLY1       -0.1210
      2  CA        31.5220   27.0420    6.4170 C.3     1  GLY1        0.1956
      3  C         30.4230   28.0630    6.1870 C.2     1  GLY1        0.2611
      4  O         30.7050   29.2170    5.8490 O.2     1  GLY1       -0.2717
      5  N         29.1700   27.6230    6.2920 N.am    2  ARG2       -0.1979
      6  CA        28.0170   28.5000    6.1040 C.3     2  ARG2        0.1597
      7  C         26.7460   27.9900    6.7960 C.2     2  ARG2        0.2287
      8  O         26.1840   28.6870    7.6370 O.2     2  ARG2       -0.2864
      9  CB        27.7370   28.7330    4.6080 C.3     2  ARG2        0.0334
     10  CG        26.6070   29.7230    4.3310 C.3     2  ARG2        0.0492
     11  CD        27.0450   31.1250    4.6910 C.3     2  ARG2        0.2205
     12  NE        25.9380   31.9940    5.0660 N.pl3   2  ARG2       -0.0865
     13  CZ        26.0690   33.0190    5.9000 C.cat   2  ARG2        0.5346
     14  NH1       27.2610   33.2810    6.4300 N.pl3   2  ARG2        0.1354
     15  NH2       25.0160   33.7730    6.1880 N.pl3   2  ARG2        0.1354
     16  N         26.5370   28.3120   10.4790 N.3     5  TRP5       -0.1241
     17  CA        26.6610   29.6830   10.9780 C.3     5  TRP5        0.1605
     18  C         25.6910   29.9470   12.1280 C.2     5  TRP5        0.2264
     19  O         26.0300   30.6250   13.0970 O.2     5  TRP5       -0.2867
     20  CB        26.4170   30.7020    9.8520 C.3     5  TRP5        0.0550
     21  CG        24.9590   31.0510    9.6670 C.ar    5  TRP5        0.0003
     22  CD1       24.0360   30.3740    8.9150 C.ar    5  TRP5        0.0946
     23  CD2       24.2410   32.1030   10.3270 C.ar    5  TRP5        0.0152
     24  NE1       22.7870   30.9290    9.0840 N.ar    5  TRP5       -0.2442
     25  CE2       22.8850   31.9890    9.9480 C.ar    5  TRP5        0.0810
     26  CE3       24.6110   33.1200   11.2200 C.ar    5  TRP5        0.0012
     27  CZ2       21.8970   32.8610   10.4210 C.ar    5  TRP5        0.0191
     28  CZ3       23.6290   33.9870   11.6920 C.ar    5  TRP5        0.0001
     29  CH2       22.2870   33.8460   11.2950 C.ar    5  TRP5        0.0015
     30  N         27.0020   28.5160   15.3310 N.3     8  LEU8       -0.1231
     31  CA        28.0930   29.3270   15.8440 C.3     8  LEU8        0.1693
     32  C         27.5940   30.6580   16.3930 C.2     8  LEU8        0.2591
     33  O         28.0560   31.1030   17.4390 O.2     8  LEU8       -0.2718
     34  CB        29.1560   29.5470   14.7720 C.3     8  LEU8        0.0284
     35  CG        29.7410   28.2260   14.2740 C.3     8  LEU8        0.0019
     36  CD1       30.9010   28.5190   13.3610 C.3     8  LEU8        0.0001
     37  CD2       30.1980   27.3570   15.4340 C.3     8  LEU8        0.0001
     38  N         26.6530   31.2880   15.6960 N.am    9  ALA9       -0.1980
     39  CA        26.1050   32.5680   16.1440 C.3     9  ALA9        0.1597
     40  C         25.2820   32.4050   17.4240 C.2     9  ALA9        0.2287
     41  O         25.1470   33.3420   18.2130 O.2     9  ALA9       -0.2864
     42  CB        25.2550   33.1980   15.0440 C.3     9  ALA9        0.0319
     43  N         27.7540   31.9560   20.2250 N.3    12  THR12      -0.1203
     44  CA        28.3910   33.2390   20.5090 C.3    12  THR12       0.1994
     45  C         27.4860   34.0600   21.4290 C.2    12  THR12       0.2617
     46  O         27.9660   34.7770   22.3100 O.2    12  THR12      -0.2717
     47  CB        28.6760   34.0280   19.2020 C.3    12  THR12       0.1784
     48  OG1       29.6950   33.3590   18.4490 O.3    12  THR12      -0.2211
     49  CG2       29.1460   35.4430   19.5050 C.3    12  THR12       0.0376
     50  N         26.1780   33.9470   21.2130 N.am   13  ALA13      -0.1979
     51  CA        25.1870   34.6620   22.0090 C.3    13  ALA13       0.1597
     52  C         25.1270   34.1260   23.4310 C.2    13  ALA13       0.2287
     53  O         25.2220   34.8870   24.3960 O.2    13  ALA13      -0.2864
     54  CB        23.8150   34.5510   21.3580 C.3    13  ALA13       0.0319
     55  N         33.4800   32.8940   24.3900 N.3    49  PHE49      -0.1241
     56  CA        32.8090   33.9010   23.5770 C.3    49  PHE49       0.1605
     57  C         33.7060   34.2630   22.4040 C.2    49  PHE49       0.2264
     58  O         33.3420   34.0500   21.2500 O.2    49  PHE49      -0.2867
     59  CB        32.4950   35.1640   24.3970 C.3    49  PHE49       0.0534
     60  CG        32.0400   36.3450   23.5610 C.ar   49  PHE49      -0.0203
     61  CD1       30.7850   36.3500   22.9550 C.ar   49  PHE49      -0.0042
     62  CD2       32.8690   37.4520   23.3810 C.ar   49  PHE49      -0.0042
     63  CE1       30.3660   37.4350   22.1780 C.ar   49  PHE49      -0.0003
     64  CE2       32.4580   38.5390   22.6060 C.ar   49  PHE49      -0.0003
     65  CZ        31.2040   38.5310   22.0050 C.ar   49  PHE49      -0.0000
     66  N         33.1120   33.5970   18.4560 N.3    53  LEU53      -0.1245
     67  CA        32.9410   34.7410   17.5730 C.3    53  LEU53       0.1561
     68  C         33.9170   34.6150   16.4120 C.2    53  LEU53       0.2260
     69  O         33.5630   34.9020   15.2680 O.2    53  LEU53      -0.2867
     70  CB        33.2010   36.0470   18.3300 C.3    53  LEU53       0.0270
     71  CG        33.0410   37.3660   17.5650 C.3    53  LEU53       0.0019
     72  CD1       31.6020   37.5560   17.1110 C.3    53  LEU53       0.0001
     73  CD2       33.4600   38.5140   18.4550 C.3    53  LEU53       0.0001
     74  N         34.9890   32.0160   15.0990 N.3    55  MET55      -0.1230
     75  CA        34.4930   30.9760   14.2080 C.3    55  MET55       0.1702
     76  C         33.3620   31.5180   13.3370 C.2    55  MET55       0.2592
     77  O         33.2950   31.2140   12.1520 O.2    55  MET55      -0.2718
     78  CB        34.0090   29.7530   14.9980 C.3    55  MET55       0.0401
     79  CG        35.1160   28.9120   15.6290 C.3    55  MET55       0.0596
     80  SD        34.5500   27.2590   16.1360 S.3    55  MET55      -0.1393
     81  CE        34.1110   27.5210   17.8540 C.3    55  MET55       0.0692
     82  N         32.4740   32.3130   13.9290 N.am   56  LEU56      -0.1966
     83  CA        31.3590   32.8950   13.1860 C.3    56  LEU56       0.1728
     84  C         31.8710   33.8880   12.1370 C.2    56  LEU56       0.2616
     85  O         31.4940   33.8110   10.9670 O.2    56  LEU56      -0.2715
     86  CB        30.3760   33.5960   14.1340 C.3    56  LEU56       0.0311
     87  CG        29.0510   34.0620   13.5130 C.3    56  LEU56       0.0022
     88  CD1       28.0920   32.8920   13.3910 C.3    56  LEU56       0.0001
     89  CD2       28.4300   35.1730   14.3410 C.3    56  LEU56       0.0001
     90  N         32.7010   34.8370   12.5730 N.am   57  LEU57      -0.1963
     91  CA        33.2780   35.8540   11.6880 C.3    57  LEU57       0.1728
     92  C         34.2580   35.2820   10.6740 C.2    57  LEU57       0.2616
     93  O         34.7710   36.0130    9.8300 O.2    57  LEU57      -0.2715
     94  CB        33.9680   36.9570   12.4830 C.3    57  LEU57       0.0311
     95  CG        33.1120   37.8000   13.4280 C.3    57  LEU57       0.0022
     96  CD1       33.9580   38.9040   14.0390 C.3    57  LEU57       0.0001
     97  CD2       31.9300   38.3960   12.6860 C.3    57  LEU57       0.0001
     98  N         34.5050   33.9780   10.7600 N.am   58  GLY58      -0.1955
     99  CA        35.3740   33.3250    9.8000 C.3    58  GLY58       0.1869
    100  C         36.7900   32.9910   10.1920 C.2    58  GLY58       0.2309
    101  O         37.3620   32.0320    9.6710 O.2    58  GLY58      -0.2863
    102  N         38.2970   29.3140   11.4630 N.3    61  LEU61      -0.1245
    103  CA        38.0970   28.2070   10.5340 C.3    61  LEU61       0.1561
    104  C         39.2990   28.0810    9.6070 C.2    61  LEU61       0.2260
    105  O         39.8020   29.0760    9.0840 O.2    61  LEU61      -0.2867
    106  CB        36.8340   28.4400    9.6970 C.3    61  LEU61       0.0270
    107  CG        36.1030   27.2680    9.0220 C.3    61  LEU61       0.0019
    108  CD1       34.9250   27.8210    8.2420 C.3    61  LEU61       0.0001
    109  CD2       36.9950   26.4780    8.0950 C.3    61  LEU61       0.0001
    110  N         37.5400   23.7870   12.3260 N.3    74  TYR74      -0.1241
    111  CA        37.4260   24.9460   13.1900 C.3    74  TYR74       0.1605
    112  C         38.4580   24.7450   14.3040 C.2    74  TYR74       0.2264
    113  O         38.2310   23.9820   15.2420 O.2    74  TYR74      -0.2867
    114  CB        36.0020   25.0630   13.7670 C.3    74  TYR74       0.0534
    115  CG        34.9520   25.5720   12.7950 C.ar   74  TYR74      -0.0201
    116  CD1       34.9070   26.9160   12.4280 C.ar   74  TYR74      -0.0009
    117  CD2       33.9710   24.7210   12.2900 C.ar   74  TYR74      -0.0009
    118  CE1       33.9100   27.3970   11.5890 C.ar   74  TYR74       0.0417
    119  CE2       32.9720   25.1920   11.4510 C.ar   74  TYR74       0.0417
    120  CZ        32.9480   26.5270   11.1060 C.ar   74  TYR74       0.1957
    121  OH        31.9600   26.9860   10.2800 O.3    74  TYR74      -0.2866
@<TRIPOS>BOND
     1    10     9    1
     2    10    11    1
     3     9     6    1
     4    11    12    1
     5    12    13    2
     6     1     2    1
     7     4     3    2
     8    13    15    1
     9    13    14    1
    10     6     5    1
    11     6     7    1
    12     3     5   am
    13     3     2    1
    14     7     8    2
    15   109   107    1
    16   108   107    1
    17    22    24   ar
    18    22    21   ar
    19   107   106    1
    20    24    25   ar
    21   105   104    2
    22   104   103    1
    23    21    20    1
    24    21    23   ar
    25   101   100    2
    26   106   103    1
    27    99   100    1
    28    99    98    1
    29    93    92    2
    30    20    17    1
    31    25    23   ar
    32    25    27   ar
    33   121   120    1
    34    23    26   ar
    35    27    29   ar
    36    16    17    1
    37   103   102    1
    38    92    98   am
    39    92    91    1
    40    85    84    2
    41    17    18    1
    42   120   119   ar
    43   120   118   ar
    44    26    28   ar
    45    29    28   ar
    46   119   117   ar
    47   118   116   ar
    48    91    94    1
    49    91    90    1
    50    18    19    2
    51    84    90   am
    52    84    83    1
    53    77    76    2
    54   117   115   ar
    55   110   111    1
    56   116   115   ar
    57    94    95    1
    58    97    95    1
    59   115   114    1
    60    83    82    1
    61    83    86    1
    62   111   114    1
    63   111   112    1
    64    76    82   am
    65    76    75    1
    66    36    35    1
    67    88    87    1
    68    95    96    1
    69    87    86    1
    70    87    89    1
    71    75    78    1
    72    75    74    1
    73    35    34    1
    74    35    37    1
    75   112   113    2
    76    34    31    1
    77    78    79    1
    78    42    39    1
    79    69    68    2
    80    30    31    1
    81    79    80    1
    82    38    39    1
    83    38    32   am
    84    31    32    1
    85    80    81    1
    86    39    40    1
    87    32    33    2
    88    68    67    1
    89    72    71    1
    90    40    41    2
    91    71    70    1
    92    71    73    1
    93    67    70    1
    94    67    66    1
    95    48    47    1
    96    47    49    1
    97    47    44    1
    98    43    44    1
    99    44    45    1
   100    50    45   am
   101    50    51    1
   102    58    57    2
   103    54    51    1
   104    45    46    2
   105    65    63   ar
   106    65    64   ar
   107    51    52    1
   108    63    61   ar
   109    57    56    1
   110    64    62   ar
   111    61    60   ar
   112    62    60   ar
   113    52    53    2
   114    60    59    1
   115    56    55    1
   116    56    59    1
