@<TRIPOS>MOLECULE
tmp/1dzeA01.pdb
 117 109 0 0 0
SMALL
GASTEIGER

@<TRIPOS>ATOM
      1  N         28.2250   34.6770   25.4180 N.3    16  GLY16      -0.1225
      2  CA        28.2530   36.0960   25.7140 C.3    16  GLY16       0.1811
      3  C         27.3380   36.4210   26.8800 C.2    16  GLY16       0.2280
      4  O         27.7370   37.1230   27.8130 O.2    16  GLY16      -0.2866
      5  N         28.5900   35.0840   30.2010 N.3    19  THR19      -0.1203
      6  CA        29.6340   35.8610   30.8590 C.3    19  THR19       0.1994
      7  C         28.9940   37.0180   31.6270 C.2    19  THR19       0.2617
      8  O         29.3460   37.2810   32.7770 O.2    19  THR19      -0.2717
      9  CB        30.6510   36.4300   29.8400 C.3    19  THR19       0.1784
     10  OG1       31.3270   35.3540   29.1780 O.3    19  THR19      -0.2211
     11  CG2       31.6850   37.2990   30.5390 C.3    19  THR19       0.0376
     12  N         28.0660   37.7140   30.9740 N.am   20  LEU20      -0.1979
     13  CA        27.3650   38.8460   31.5750 C.3    20  LEU20       0.1596
     14  C         26.6620   38.4810   32.8710 C.2    20  LEU20       0.2287
     15  O         26.6590   39.2620   33.8230 O.2    20  LEU20      -0.2864
     16  CB        26.3360   39.4060   30.5980 C.3    20  LEU20       0.0297
     17  CG        26.6940   40.7430   29.9580 C.3    20  LEU20       0.0022
     18  CD1       28.0100   40.6360   29.2030 C.3    20  LEU20       0.0001
     19  CD2       25.5690   41.1600   29.0330 C.3    20  LEU20       0.0001
     20  N         29.2890   37.7920   35.7070 N.3    23  LEU23      -0.1231
     21  CA        29.9260   39.0540   36.0900 C.3    23  LEU23       0.1693
     22  C         29.0040   39.8130   37.0340 C.2    23  LEU23       0.2591
     23  O         29.4090   40.2260   38.1230 O.2    23  LEU23      -0.2718
     24  CB        30.2060   39.9350   34.8640 C.3    23  LEU23       0.0284
     25  CG        31.6030   39.8730   34.2410 C.3    23  LEU23       0.0019
     26  CD1       31.7090   40.8980   33.1260 C.3    23  LEU23       0.0001
     27  CD2       32.6690   40.1400   35.2920 C.3    23  LEU23       0.0001
     28  N         27.7750   40.0400   36.5740 N.am   24  VAL24      -0.1980
     29  CA        26.7610   40.7550   37.3420 C.3    24  VAL24       0.1595
     30  C         26.4410   40.0100   38.6390 C.2    24  VAL24       0.2287
     31  O         26.2120   40.6250   39.6830 O.2    24  VAL24      -0.2864
     32  CB        25.4710   40.9790   36.4900 C.3    24  VAL24       0.0276
     33  CG1       24.3670   41.6000   37.3240 C.3    24  VAL24       0.0022
     34  CG2       25.7800   41.8870   35.3110 C.3    24  VAL24       0.0022
     35  N         28.4790   37.7240   40.4480 N.3    26  GLY26      -0.1210
     36  CA        29.5850   37.7880   41.3930 C.3    26  GLY26       0.1956
     37  C         29.9820   39.1700   41.8700 C.2    26  GLY26       0.2611
     38  O         30.8430   39.3050   42.7400 O.2    26  GLY26      -0.2717
     39  N         29.2990   40.1940   41.3680 N.am   27  MET27      -0.1979
     40  CA        29.5970   41.5710   41.7440 C.3    27  MET27       0.1605
     41  C         29.4770   41.8710   43.2360 C.2    27  MET27       0.2287
     42  O         30.2320   42.6870   43.7710 O.2    27  MET27      -0.2864
     43  CB        28.7140   42.5450   40.9670 C.3    27  MET27       0.0413
     44  CG        29.2460   42.9290   39.6030 C.3    27  MET27       0.0598
     45  SD        28.6930   44.5870   39.1400 S.3    27  MET27      -0.1393
     46  CE        27.2450   44.7930   40.2070 C.3    27  MET27       0.0692
     47  N         29.7870   39.6190   45.6940 N.3    29  VAL29      -0.1245
     48  CA        30.5820   38.6790   46.4750 C.3    29  VAL29       0.1561
     49  C         31.8120   39.2770   47.1600 C.2    29  VAL29       0.2260
     50  O         32.6610   39.9040   46.5260 O.2    29  VAL29      -0.2867
     51  CB        30.9740   37.4830   45.6040 C.3    29  VAL29       0.0252
     52  CG1       31.7100   36.4360   46.4200 C.3    29  VAL29       0.0019
     53  CG2       29.7240   36.8940   44.9860 C.3    29  VAL29       0.0019
     54  N         34.9180   34.4680   45.6610 N.3    35  LYS35      -0.1245
     55  CA        35.4790   35.4370   44.7250 C.3    35  LYS35       0.1561
     56  C         36.4700   34.7960   43.7550 C.2    35  LYS35       0.2260
     57  O         36.6550   35.2780   42.6420 O.2    35  LYS35      -0.2867
     58  CB        36.1420   36.5920   45.4810 C.3    35  LYS35       0.0271
     59  CG        35.2030   37.7490   45.8280 C.3    35  LYS35       0.0035
     60  CD        35.9250   38.8320   46.6300 C.3    35  LYS35       0.0206
     61  CE        37.3310   39.0750   46.0830 C.3    35  LYS35       0.1093
     62  NZ        37.9890   40.2910   46.6460 N.3    35  LYS35      -0.1314
     63  N         34.1810   32.6610   41.2930 N.3    38  TYR38      -0.1227
     64  CA        33.5780   33.5200   40.2620 C.3    38  TYR38       0.1736
     65  C         34.6350   33.9770   39.2740 C.2    38  TYR38       0.2595
     66  O         34.3460   34.2110   38.1120 O.2    38  TYR38      -0.2718
     67  CB        32.9380   34.7640   40.8590 C.3    38  TYR38       0.0548
     68  CG        31.5500   34.5670   41.4090 C.ar   38  TYR38      -0.0200
     69  CD1       30.4350   34.5200   40.5670 C.ar   38  TYR38      -0.0009
     70  CD2       31.3480   34.4090   42.7750 C.ar   38  TYR38      -0.0009
     71  CE1       29.1530   34.3150   41.0810 C.ar   38  TYR38       0.0417
     72  CE2       30.0800   34.2050   43.2940 C.ar   38  TYR38       0.0417
     73  CZ        28.9890   34.1580   42.4480 C.ar   38  TYR38       0.1957
     74  OH        27.7430   33.9390   42.9790 O.3    38  TYR38      -0.2866
     75  N         35.8660   34.1170   39.7550 N.am   39  ALA39      -0.1980
     76  CA        36.9740   34.5210   38.9060 C.3    39  ALA39       0.1597
     77  C         37.2670   33.4400   37.8760 C.2    39  ALA39       0.2287
     78  O         37.3510   33.7110   36.6780 O.2    39  ALA39      -0.2864
     79  CB        38.2110   34.7980   39.7350 C.3    39  ALA39       0.0319
     80  N         33.8480   32.7500   35.6250 N.3    42  THR42      -0.1203
     81  CA        33.4490   33.7900   34.6790 C.3    42  THR42       0.1994
     82  C         34.3520   33.8340   33.4540 C.2    42  THR42       0.2617
     83  O         33.8950   34.1190   32.3470 O.2    42  THR42      -0.2717
     84  CB        33.4410   35.1550   35.3500 C.3    42  THR42       0.1784
     85  OG1       32.6800   35.0500   36.5490 O.3    42  THR42      -0.2211
     86  CG2       32.7930   36.2030   34.4510 C.3    42  THR42       0.0376
     87  N         35.6350   33.5530   33.6660 N.am   43  LEU43      -0.1979
     88  CA        36.6410   33.5450   32.6060 C.3    43  LEU43       0.1596
     89  C         36.4860   32.4330   31.5810 C.2    43  LEU43       0.2287
     90  O         37.0080   32.5370   30.4730 O.2    43  LEU43      -0.2864
     91  CB        38.0400   33.4370   33.2050 C.3    43  LEU43       0.0297
     92  CG        38.8780   34.7060   33.3050 C.3    43  LEU43       0.0022
     93  CD1       40.2460   34.3400   33.8490 C.3    43  LEU43       0.0001
     94  CD2       39.0030   35.3620   31.9360 C.3    43  LEU43       0.0001
     95  N         33.9340   33.7010   28.9050 N.3    46  ALA46      -0.1245
     96  CA        34.4630   34.8970   28.2780 C.3    46  ALA46       0.1562
     97  C         35.3820   34.4740   27.1320 C.2    46  ALA46       0.2260
     98  O         35.2940   35.0190   26.0310 O.2    46  ALA46      -0.2867
     99  CB        35.2110   35.7460   29.2970 C.3    46  ALA46       0.0290
    100  N         33.4800   32.8940   24.3900 N.3    49  PHE49      -0.1227
    101  CA        32.8090   33.9010   23.5770 C.3    49  PHE49       0.1736
    102  C         33.7060   34.2630   22.4040 C.2    49  PHE49       0.2596
    103  O         33.3420   34.0500   21.2500 O.2    49  PHE49      -0.2718
    104  CB        32.4950   35.1640   24.3970 C.3    49  PHE49       0.0547
    105  CG        32.0400   36.3450   23.5610 C.ar   49  PHE49      -0.0202
    106  CD1       30.7850   36.3500   22.9550 C.ar   49  PHE49      -0.0042
    107  CD2       32.8690   37.4520   23.3810 C.ar   49  PHE49      -0.0042
    108  CE1       30.3660   37.4350   22.1780 C.ar   49  PHE49      -0.0003
    109  CE2       32.4580   38.5390   22.6060 C.ar   49  PHE49      -0.0003
    110  CZ        31.2040   38.5310   22.0050 C.ar   49  PHE49      -0.0000
    111  N         34.8810   34.8020   22.7130 N.am   50  THR50      -0.1953
    112  CA        35.8310   35.2170   21.6920 C.3    50  THR50       0.1897
    113  C         36.1330   34.1160   20.6850 C.2    50  THR50       0.2313
    114  O         36.1840   34.3720   19.4800 O.2    50  THR50      -0.2863
    115  CB        37.1510   35.7540   22.3100 C.3    50  THR50       0.1794
    116  OG1       37.9340   34.6740   22.8350 O.3    50  THR50      -0.2208
    117  CG2       36.8460   36.7370   23.4320 C.3    50  THR50       0.0378
@<TRIPOS>BOND
     1   114   113    2
     2   113   112    1
     3   103   102    2
     4   112   115    1
     5   112   111    1
     6   110   108   ar
     7   110   109   ar
     8   108   106   ar
     9   115   116    1
    10   115   117    1
    11   102   111   am
    12   102   101    1
    13   109   107   ar
    14   106   105   ar
    15   107   105   ar
    16   105   104    1
    17   101   100    1
    18   101   104    1
    19     1     2    1
    20     2     3    1
    21    98    97    2
    22     3     4    2
    23    97    96    1
    24    96    95    1
    25    96    99    1
    26    19    17    1
    27    10     9    1
    28    18    17    1
    29     9    11    1
    30     9     6    1
    31    17    16    1
    32     5     6    1
    33    90    89    2
    34    16    13    1
    35     6     7    1
    36    12    13    1
    37    12     7   am
    38    13    14    1
    39    89    88    1
    40     7     8    2
    41    94    92    1
    42    83    82    2
    43    88    91    1
    44    88    87    1
    45    14    15    2
    46    26    25    1
    47    91    92    1
    48    92    93    1
    49    82    87   am
    50    82    81    1
    51    25    24    1
    52    25    27    1
    53    86    84    1
    54    81    84    1
    55    81    80    1
    56    24    21    1
    57    34    32    1
    58    84    85    1
    59    20    21    1
    60    21    22    1
    61    32    33    1
    62    32    29    1
    63    28    22   am
    64    28    29    1
    65    78    77    2
    66    22    23    2
    67    29    30    1
    68    77    76    1
    69    66    65    2
    70    30    31    2
    71    76    79    1
    72    76    75    1
    73    45    44    1
    74    45    46    1
    75    65    75   am
    76    65    64    1
    77    44    43    1
    78    64    67    1
    79    64    63    1
    80    35    36    1
    81    69    71   ar
    82    69    68   ar
    83    67    68    1
    84    43    40    1
    85    71    73   ar
    86    39    40    1
    87    39    37   am
    88    36    37    1
    89    68    70   ar
    90    40    41    1
    91    37    38    2
    92    73    74    1
    93    73    72   ar
    94    57    56    2
    95    70    72   ar
    96    41    42    2
    97    56    55    1
    98    55    58    1
    99    55    54    1
   100    53    51    1
   101    58    59    1
   102    51    52    1
   103    51    48    1
   104    47    48    1
   105    59    60    1
   106    61    60    1
   107    61    62    1
   108    48    49    1
   109    50    49    2
