@<TRIPOS>MOLECULE
tmp/1dzgB01.pdb
 92 89 0 0 0
SMALL
GASTEIGER

@<TRIPOS>ATOM
      1  N        -34.9120    2.0140  -48.4400 N.3    12  ASN12      -0.1226
      2  CA       -36.0400    1.1500  -48.1990 C.3    12  ASN12       0.1770
      3  C        -35.9890   -0.1910  -48.8970 C.2    12  ASN12       0.2439
      4  O        -36.3160   -0.3320  -50.0730 O.2    12  ASN12      -0.2733
      5  CB       -37.3500    1.8820  -48.5220 C.3    12  ASN12       0.1168
      6  CG       -37.6270    3.0520  -47.5980 C.2    12  ASN12       0.2627
      7  OD1      -37.8670    2.8700  -46.4040 O.2    12  ASN12      -0.2716
      8  ND2      -37.5080    4.2660  -48.1250 N.am   12  ASN12      -0.0877
      9  N        -35.6750   -1.2290  -48.1180 N.am   13  PRO13      -0.2718
     10  CA       -35.7150   -2.6060  -48.5890 C.3    13  PRO13       0.1535
     11  C        -37.1670   -3.0830  -48.6340 C.2    13  PRO13       0.2598
     12  O        -38.0950   -2.2850  -48.5050 O.2    13  PRO13      -0.2715
     13  CB       -34.9240   -3.3630  -47.5330 C.3    13  PRO13       0.0310
     14  CG       -35.0930   -2.5880  -46.2770 C.3    13  PRO13       0.0237
     15  CD       -35.3020   -1.1590  -46.6910 C.3    13  PRO13       0.0939
     16  N        -37.3680   -4.3780  -48.7800 N.am   14  MET14      -0.1978
     17  CA       -38.6760   -4.9760  -48.9140 C.3    14  MET14       0.1605
     18  C        -39.5290   -5.0100  -47.6650 C.2    14  MET14       0.2287
     19  O        -40.7480   -4.8100  -47.7250 O.2    14  MET14      -0.2864
     20  CB       -38.4850   -6.4190  -49.4220 C.3    14  MET14       0.0413
     21  CG       -39.7470   -7.0520  -49.9730 C.3    14  MET14       0.0598
     22  SD       -39.4090   -8.1990  -51.3230 S.3    14  MET14      -0.1393
     23  CE       -38.8280   -7.0850  -52.5970 C.3    14  MET14       0.0692
     24  N        -31.8890   -7.9400  -57.5780 N.3   134  ASN134     -0.1225
     25  CA       -32.7950   -6.8030  -57.4730 C.3   134  ASN134      0.1785
     26  C        -31.9930   -5.5130  -57.6510 C.2   134  ASN134      0.2597
     27  O        -30.8730   -5.3400  -57.2020 O.2   134  ASN134     -0.2718
     28  CB       -33.6450   -6.7950  -56.2140 C.3   134  ASN134      0.1169
     29  CG       -34.7190   -5.7150  -56.1240 C.2   134  ASN134      0.2627
     30  OD1      -34.4990   -4.6440  -56.7160 O.2   134  ASN134     -0.2716
     31  ND2      -35.8270   -5.9530  -55.4230 N.am  134  ASN134     -0.0877
     32  N        -32.6210   -4.5760  -58.3420 N.am  135  GLU135     -0.1965
     33  CA       -32.1240   -3.2420  -58.5770 C.3   135  GLU135      0.1733
     34  C        -32.0530   -2.4130  -57.3050 C.2   135  GLU135      0.2617
     35  O        -31.0050   -1.8220  -57.0330 O.2   135  GLU135     -0.2715
     36  CB       -33.0140   -2.5570  -59.6210 C.3   135  GLU135      0.0429
     37  CG       -32.5970   -1.1490  -59.9880 C.3   135  GLU135      0.1163
     38  CD       -33.7550   -0.3010  -60.4810 C.2   135  GLU135      0.3649
     39  OE1      -34.9230   -0.6650  -60.2270 O.co2 135  GLU135     -0.2457
     40  OE2      -33.4860    0.7370  -61.1230 O.co2 135  GLU135     -0.2457
     41  N        -33.1200   -2.3800  -56.5010 N.am  136  THR136     -0.1937
     42  CA       -33.0900   -1.6100  -55.2630 C.3   136  THR136      0.2028
     43  C        -32.0970   -2.2050  -54.2750 C.2   136  THR136      0.2642
     44  O        -31.2000   -1.5030  -53.8000 O.2   136  THR136     -0.2714
     45  CB       -34.4450   -1.3970  -54.5980 C.3   136  THR136      0.1808
     46  OG1      -35.2500   -2.5670  -54.7160 O.3   136  THR136     -0.2208
     47  CG2      -35.1730   -0.2070  -55.2080 C.3   136  THR136      0.0379
     48  N        -32.1640   -3.5220  -54.0810 N.am  137  TYR137     -0.1973
     49  CA       -31.1670   -4.2220  -53.2820 C.3   137  TYR137      0.1639
     50  C        -29.7660   -3.7530  -53.6440 C.2   137  TYR137      0.2290
     51  O        -29.1010   -3.0910  -52.8380 O.2   137  TYR137     -0.2864
     52  CB       -31.2850   -5.7390  -53.4660 C.3   137  TYR137      0.0560
     53  CG       -30.2290   -6.4730  -52.6610 C.ar  137  TYR137     -0.0198
     54  CD1      -30.3220   -6.5510  -51.2780 C.ar  137  TYR137     -0.0009
     55  CD2      -29.1050   -6.9960  -53.2830 C.ar  137  TYR137     -0.0009
     56  CE1      -29.3340   -7.1720  -50.5350 C.ar  137  TYR137      0.0417
     57  CE2      -28.1120   -7.6130  -52.5460 C.ar  137  TYR137      0.0417
     58  CZ       -28.2330   -7.6980  -51.1770 C.ar  137  TYR137      0.1957
     59  OH       -27.2530   -8.3220  -50.4430 O.3   137  TYR137     -0.2866
     60  N        -28.9360   -0.2640  -52.5010 N.3   140  ILE140     -0.1245
     61  CA       -28.9670    0.0440  -51.0650 C.3   140  ILE140      0.1561
     62  C        -27.5870   -0.4080  -50.5280 C.2   140  ILE140      0.2260
     63  O        -26.8380    0.3430  -49.9370 O.2   140  ILE140     -0.2867
     64  CB       -30.0190   -0.7270  -50.2700 C.3   140  ILE140      0.0252
     65  CG1      -31.4320   -0.5200  -50.8020 C.3   140  ILE140      0.0019
     66  CG2      -29.9540   -0.3340  -48.7940 C.3   140  ILE140      0.0019
     67  CD1      -32.4430   -1.5060  -50.2410 C.3   140  ILE140      0.0001
     68  N        -35.4760  -10.4080  -51.1920 N.3   332  GLY332     -0.1225
     69  CA       -35.3060   -9.0130  -51.6100 C.3   332  GLY332      0.1811
     70  C        -33.9510   -8.8600  -52.2980 C.2   332  GLY332      0.2280
     71  O        -33.4660   -7.7600  -52.5210 O.2   332  GLY332     -0.2866
     72  N        -32.7990  -11.3740  -55.2020 N.3   334  VAL334     -0.1231
     73  CA       -32.8870  -11.6660  -56.6190 C.3   334  VAL334      0.1692
     74  C        -34.1730  -11.2300  -57.3000 C.2   334  VAL334      0.2592
     75  O        -35.1990  -10.9300  -56.7010 O.2   334  VAL334     -0.2718
     76  CB       -32.4930  -13.0790  -57.0250 C.3   334  VAL334      0.0266
     77  CG1      -31.4760  -13.7090  -56.0880 C.3   334  VAL334      0.0020
     78  CG2      -33.6640  -14.0130  -57.2490 C.3   334  VAL334      0.0020
     79  N        -34.1480  -11.2390  -58.6260 N.am  335  ALA335     -0.1966
     80  CA       -35.1850  -10.8930  -59.5410 C.3   335  ALA335      0.1728
     81  C        -36.6130  -11.0150  -59.0490 C.2   335  ALA335      0.2616
     82  O        -37.2200  -10.0170  -58.6560 O.2   335  ALA335     -0.2715
     83  CB       -35.0540  -11.6850  -60.8460 C.3   335  ALA335      0.0334
     84  N        -37.1910  -12.2130  -59.1490 N.am  336  GLU336     -0.1977
     85  CA       -38.5780  -12.3980  -58.7150 C.3   336  GLU336      0.1602
     86  C        -38.6520  -12.3180  -57.1950 C.2   336  GLU336      0.2287
     87  O        -39.2480  -11.4140  -56.6200 O.2   336  GLU336     -0.2864
     88  CB       -39.1180  -13.7370  -59.2130 C.3   336  GLU336      0.0415
     89  CG       -39.1480  -13.8510  -60.7300 C.3   336  GLU336      0.1163
     90  CD       -40.1030  -12.8610  -61.3680 C.2   336  GLU336      0.3649
     91  OE1      -39.7370  -11.6750  -61.5170 O.co2 336  GLU336     -0.2457
     92  OE2      -41.2210  -13.2720  -61.7410 O.co2 336  GLU336     -0.2457
@<TRIPOS>BOND
     1    92    90   ar
     2    91    90   ar
     3    90    89    1
     4    40    38   ar
     5    83    80    1
     6    89    88    1
     7    38    39   ar
     8    38    37    1
     9    37    36    1
    10    36    33    1
    11    80    81    1
    12    80    79    1
    13    88    85    1
    14    84    81   am
    15    84    85    1
    16    81    82    2
    17    85    86    1
    18    79    74   am
    19    33    32    1
    20    33    34    1
    21    32    26   am
    22    26    25    1
    23    26    27    2
    24    24    25    1
    25    25    28    1
    26    34    35    2
    27    34    41   am
    28    74    75    2
    29    74    73    1
    30    78    76    1
    31    86    87    2
    32    76    73    1
    33    76    77    1
    34    30    29    2
    35    73    72    1
    36    41    42    1
    37    28    29    1
    38    29    31   am
    39    42    45    1
    40    42    43    1
    41    47    45    1
    42    46    45    1
    43    43    48   am
    44    43    44    2
    45    48    49    1
    46    50    49    1
    47    50    51    2
    48    52    49    1
    49    52    53    1
    50    55    53   ar
    51    55    57   ar
    52    53    54   ar
    53    23    22    1
    54    57    58   ar
    55    71    70    2
    56    60    61    1
    57    70    69    1
    58    69    68    1
    59    22    21    1
    60    54    56   ar
    61    58    56   ar
    62    58    59    1
    63    61    62    1
    64    61    64    1
    65    65    64    1
    66    65    67    1
    67    62    63    2
    68    64    66    1
    69     4     3    2
    70    21    20    1
    71    20    17    1
    72    17    16    1
    73    17    18    1
    74     3     2    1
    75     3     9   am
    76    16    11   am
    77    11    10    1
    78    11    12    2
    79    10     9    1
    80    10    13    1
    81     5     2    1
    82     5     6    1
    83     1     2    1
    84     8     6   am
    85     9    15    1
    86    19    18    2
    87     6     7    2
    88    13    14    1
    89    15    14    1
