@<TRIPOS>MOLECULE
tmp/1dzjB00.pdb
 157 144 0 0 0
SMALL
GASTEIGER

@<TRIPOS>ATOM
      1  N         16.0480    9.0180   32.0640 N.3     9  THR9       -0.1218
      2  CA        16.7290    7.8440   31.5130 C.3     9  THR9        0.1862
      3  C         17.9920    7.4470   32.2910 C.2     9  THR9        0.2287
      4  O         18.8620    8.2850   32.5220 O.2     9  THR9       -0.2866
      5  CB        17.1530    8.0860   30.0410 C.3     9  THR9        0.1770
      6  OG1       16.0390    8.5720   29.2820 O.3     9  THR9       -0.2211
      7  CG2       17.6420    6.7910   29.4120 C.3     9  THR9        0.0375
      8  N         20.2840    2.4160   28.5510 N.3    12  ILE12      -0.1245
      9  CA        19.6540    2.0070   27.3150 C.3    12  ILE12       0.1561
     10  C         20.4940    0.9280   26.6520 C.2    12  ILE12       0.2260
     11  O         21.7230    1.0070   26.6350 O.2    12  ILE12      -0.2867
     12  CB        19.4900    3.1970   26.3360 C.3    12  ILE12       0.0252
     13  CG1       18.4350    4.1730   26.8720 C.3    12  ILE12       0.0019
     14  CG2       19.0950    2.6830   24.9540 C.3    12  ILE12       0.0019
     15  CD1       18.2430    5.4170   26.0040 C.3    12  ILE12       0.0001
     16  N         18.6520    7.5640   19.3210 N.3    26  PHE26      -0.1241
     17  CA        18.1260    6.8860   20.4960 C.3    26  PHE26       0.1605
     18  C         18.8840    7.0350   21.8070 C.2    26  PHE26       0.2264
     19  O         18.7010    6.2580   22.7480 O.2    26  PHE26      -0.2867
     20  CB        17.8290    5.4230   20.1740 C.3    26  PHE26       0.0534
     21  CG        16.5800    5.2580   19.3640 C.ar   26  PHE26      -0.0203
     22  CD1       15.3330    5.2840   19.9850 C.ar   26  PHE26      -0.0042
     23  CD2       16.6340    5.1680   17.9770 C.ar   26  PHE26      -0.0042
     24  CE1       14.1610    5.2410   19.2390 C.ar   26  PHE26      -0.0003
     25  CE2       15.4620    5.1240   17.2240 C.ar   26  PHE26      -0.0003
     26  CZ        14.2250    5.1560   17.8580 C.ar   26  PHE26      -0.0000
     27  N         18.3580    8.8070   24.2520 N.3    28  VAL28      -0.1245
     28  CA        17.2450    9.5990   24.7630 C.3    28  VAL28       0.1561
     29  C         17.3080    9.9510   26.2460 C.2    28  VAL28       0.2260
     30  O         17.4700    9.0680   27.0950 O.2    28  VAL28      -0.2867
     31  CB        15.9050    8.8570   24.4760 C.3    28  VAL28       0.0252
     32  CG1       14.7510    9.5140   25.2300 C.3    28  VAL28       0.0019
     33  CG2       15.6360    8.8550   22.9780 C.3    28  VAL28       0.0019
     34  N         14.9870   11.1260   28.8110 N.3    30  MET30      -0.1245
     35  CA        13.5810   11.3270   29.1610 C.3    30  MET30       0.1570
     36  C         13.3480   12.4040   30.2100 C.2    30  MET30       0.2261
     37  O         14.2140   12.6850   31.0400 O.2    30  MET30      -0.2867
     38  CB        12.9780   10.0040   29.6510 C.3    30  MET30       0.0387
     39  CG        11.4580    9.9270   29.5860 C.3    30  MET30       0.0595
     40  SD        10.8130   10.0840   27.8890 S.3    30  MET30      -0.1393
     41  CE        11.5300    8.6850   27.0760 C.3    30  MET30       0.0692
     42  N          6.4850   11.1950   30.9910 N.3    33  ILE33      -0.1245
     43  CA         5.6100   10.3040   30.2390 C.3    33  ILE33       0.1561
     44  C          4.2290   10.2860   30.8840 C.2    33  ILE33       0.2260
     45  O          4.1080   10.1390   32.1020 O.2    33  ILE33      -0.2867
     46  CB         6.1310    8.8500   30.2230 C.3    33  ILE33       0.0252
     47  CG1        7.5310    8.7960   29.6110 C.3    33  ILE33       0.0019
     48  CG2        5.1660    7.9680   29.4420 C.3    33  ILE33       0.0019
     49  CD1        8.1120    7.3960   29.5010 C.3    33  ILE33       0.0001
     50  N          5.0220   11.5800   25.3610 N.3    44  LEU44      -0.1245
     51  CA         6.4220   11.5170   25.7650 C.3    44  LEU44       0.1561
     52  C          7.1550   12.8590   25.5470 C.2    44  LEU44       0.2260
     53  O          7.0400   13.4710   24.4830 O.2    44  LEU44      -0.2867
     54  CB         7.1470   10.3960   24.9820 C.3    44  LEU44       0.0270
     55  CG         6.7190    8.9160   24.9680 C.3    44  LEU44       0.0019
     56  CD1        6.7780    8.3210   26.3630 C.3    44  LEU44       0.0001
     57  CD2        5.3330    8.7770   24.3800 C.3    44  LEU44       0.0001
     58  N         11.0560   14.4870   25.9260 N.3    46  PHE46      -0.1241
     59  CA        12.4720   14.1770   26.1680 C.3    46  PHE46       0.1605
     60  C         13.4580   14.9740   25.3130 C.2    46  PHE46       0.2264
     61  O         13.0620   15.6920   24.3940 O.2    46  PHE46      -0.2867
     62  CB        12.7390   12.6940   25.9060 C.3    46  PHE46       0.0534
     63  CG        12.4490   12.2680   24.4910 C.ar   46  PHE46      -0.0203
     64  CD1       13.4200   12.3840   23.4930 C.ar   46  PHE46      -0.0042
     65  CD2       11.2030   11.7430   24.1550 C.ar   46  PHE46      -0.0042
     66  CE1       13.1500   11.9840   22.1770 C.ar   46  PHE46      -0.0003
     67  CE2       10.9250   11.3410   22.8460 C.ar   46  PHE46      -0.0003
     68  CZ        11.8980   11.4600   21.8630 C.ar   46  PHE46      -0.0000
     69  N          6.2040   13.9400   21.7930 N.3    59  LEU59      -0.1245
     70  CA         5.5370   12.9970   20.9030 C.3    59  LEU59       0.1561
     71  C          4.1960   12.5090   21.4340 C.2    59  LEU59       0.2260
     72  O          3.8760   12.6710   22.6070 O.2    59  LEU59      -0.2867
     73  CB         6.4330   11.7780   20.6730 C.3    59  LEU59       0.0270
     74  CG         7.9250   11.9640   20.3780 C.3    59  LEU59       0.0019
     75  CD1        8.5800   10.5940   20.2850 C.3    59  LEU59       0.0001
     76  CD2        8.1250   12.7480   19.0890 C.3    59  LEU59       0.0001
     77  N          4.3010    4.8540   18.0410 N.3    71  VAL71      -0.1245
     78  CA         4.7240    6.2490   18.0330 C.3    71  VAL71       0.1561
     79  C          5.8400    6.4740   17.0160 C.2    71  VAL71       0.2260
     80  O          6.7710    5.6690   16.9000 O.2    71  VAL71      -0.2867
     81  CB         5.2160    6.6730   19.4380 C.3    71  VAL71       0.0252
     82  CG1        6.4830    5.9120   19.7960 C.3    71  VAL71       0.0019
     83  CG2        5.4500    8.1790   19.4890 C.3    71  VAL71       0.0019
     84  N          9.0920    8.2940   15.5380 N.3    73  TYR73      -0.1241
     85  CA        10.3050    8.9710   15.9720 C.3    73  TYR73       0.1605
     86  C         11.4900    8.2260   15.3640 C.2    73  TYR73       0.2264
     87  O         11.6960    7.0420   15.6490 O.2    73  TYR73      -0.2867
     88  CB        10.4300    8.9540   17.4910 C.3    73  TYR73       0.0534
     89  CG        11.7320    9.5450   17.9780 C.ar   73  TYR73      -0.0201
     90  CD1       11.9470   10.9210   17.9530 C.ar   73  TYR73      -0.0009
     91  CD2       12.7590    8.7270   18.4430 C.ar   73  TYR73      -0.0009
     92  CE1       13.1520   11.4710   18.3870 C.ar   73  TYR73       0.0417
     93  CE2       13.9660    9.2630   18.8770 C.ar   73  TYR73       0.0417
     94  CZ        14.1580   10.6340   18.8450 C.ar   73  TYR73       0.1957
     95  OH        15.3530   11.1670   19.2700 O.3    73  TYR73      -0.2866
     96  N          7.9210    3.1510   15.6560 N.3    77  ASN77      -0.1240
     97  CA         8.2260    2.3880   16.8590 C.3    77  ASN77       0.1653
     98  C          6.9970    1.7360   17.4740 C.2    77  ASN77       0.2266
     99  O          5.8990    2.2990   17.4640 O.2    77  ASN77      -0.2867
    100  CB         8.8660    3.2740   17.9290 C.3    77  ASN77       0.1155
    101  CG         9.9750    4.1290   17.3900 C.2    77  ASN77       0.2627
    102  OD1        9.7320    5.2210   16.8710 O.2    77  ASN77      -0.2716
    103  ND2       11.2030    3.6420   17.4960 N.am   77  ASN77      -0.0877
    104  N          6.2860   -0.1350   21.1230 N.3    79  PHE79      -0.1241
    105  CA         6.8530   -0.5000   22.4140 C.3    79  PHE79       0.1605
    106  C          5.8530   -0.9820   23.4610 C.2    79  PHE79       0.2264
    107  O          4.6430   -0.8100   23.3180 O.2    79  PHE79      -0.2867
    108  CB         7.6680    0.6730   22.9920 C.3    79  PHE79       0.0534
    109  CG         6.8350    1.8320   23.4920 C.ar   79  PHE79      -0.0203
    110  CD1        6.3450    1.8390   24.7960 C.ar   79  PHE79      -0.0042
    111  CD2        6.5700    2.9300   22.6720 C.ar   79  PHE79      -0.0042
    112  CE1        5.6140    2.9290   25.2860 C.ar   79  PHE79      -0.0003
    113  CE2        5.8410    4.0250   23.1520 C.ar   79  PHE79      -0.0003
    114  CZ         5.3610    4.0210   24.4590 C.ar   79  PHE79      -0.0000
    115  N         11.2470   -0.2570   29.4470 N.3    91  ILE91      -0.1245
    116  CA        10.5980   -0.2880   28.1500 C.3    91  ILE91       0.1561
    117  C         11.3780   -1.0470   27.0940 C.2    91  ILE91       0.2260
    118  O         12.6020   -0.9210   27.0000 O.2    91  ILE91      -0.2867
    119  CB        10.3330    1.1550   27.6530 C.3    91  ILE91       0.0252
    120  CG1        9.3580    1.8480   28.6070 C.3    91  ILE91       0.0019
    121  CG2        9.7750    1.1270   26.2320 C.3    91  ILE91       0.0019
    122  CD1        9.3170    3.3380   28.4670 C.3    91  ILE91       0.0001
    123  N         11.4380   -1.6350   23.0210 N.3    93  ASN93      -0.1240
    124  CA        10.9530   -1.0160   21.7950 C.3    93  ASN93       0.1653
    125  C         11.5680   -1.6080   20.5310 C.2    93  ASN93       0.2266
    126  O         12.7500   -1.9760   20.5060 O.2    93  ASN93      -0.2867
    127  CB        11.2330    0.4930   21.8410 C.3    93  ASN93       0.1155
    128  CG        10.8130    1.2080   20.5650 C.2    93  ASN93       0.2627
    129  OD1        9.6580    1.1310   20.1590 O.2    93  ASN93      -0.2716
    130  ND2       11.7540    1.9070   19.9280 N.am   93  ASN93      -0.0877
    131  N         15.5200   -2.4880   21.2760 N.3   105  MET105     -0.1230
    132  CA        16.1120   -1.6740   22.3260 C.3   105  MET105      0.1702
    133  C         15.3780   -1.7540   23.6460 C.2   105  MET105      0.2593
    134  O         14.1970   -2.0820   23.6920 O.2   105  MET105     -0.2718
    135  CB        16.1420   -0.2180   21.8980 C.3   105  MET105      0.0401
    136  CG        16.9390    0.0640   20.6700 C.3   105  MET105      0.0596
    137  SD        16.7700    1.8100   20.2570 S.3   105  MET105     -0.1393
    138  CE        15.2760    1.7570   19.2820 C.3   105  MET105      0.0692
    139  N         16.0890   -1.4220   24.7180 N.am  106  THR106     -0.1939
    140  CA        15.5080   -1.4260   26.0500 C.3   106  THR106      0.2028
    141  C         15.9230   -0.1620   26.7780 C.2   106  THR106      0.2642
    142  O         16.9540    0.4420   26.4690 O.2   106  THR106     -0.2714
    143  CB        15.9690   -2.6520   26.8720 C.3   106  THR106      0.1808
    144  OG1       17.3980   -2.7180   26.8700 O.3   106  THR106     -0.2208
    145  CG2       15.4110   -3.9320   26.2810 C.3   106  THR106      0.0379
    146  N         15.1080    0.2460   27.7380 N.am  107  GLY107     -0.1954
    147  CA        15.4130    1.4370   28.5000 C.3   107  GLY107      0.1869
    148  C         14.9570    1.3540   29.9450 C.2   107  GLY107      0.2309
    149  O         13.8870    0.8220   30.2480 O.2   107  GLY107     -0.2863
    150  N         14.0540    3.6480   33.1420 N.3   109  LEU109     -0.1245
    151  CA        13.7290    5.0050   33.5420 C.3   109  LEU109      0.1561
    152  C         13.5140    5.0280   35.0470 C.2   109  LEU109      0.2260
    153  O         13.1270    4.0240   35.6420 O.2   109  LEU109     -0.2867
    154  CB        12.4610    5.4810   32.8210 C.3   109  LEU109      0.0270
    155  CG        12.3860    5.2100   31.3130 C.3   109  LEU109      0.0019
    156  CD1       11.0800    5.7460   30.7550 C.3   109  LEU109      0.0001
    157  CD2       13.5600    5.8630   30.6150 C.3   109  LEU109      0.0001
@<TRIPOS>BOND
     1    86    87    2
     2    86    85    1
     3    84    85    1
     4    96    97    1
     5    85    88    1
     6    97    98    1
     7    97   100    1
     8   102   101    2
     9    80    79    2
    10    79    78    1
    11    25    26   ar
    12    25    23   ar
    13   101   103   am
    14   101   100    1
    15    99    98    2
    16    88    89    1
    17    26    24   ar
    18    90    89   ar
    19    90    92   ar
    20    23    21   ar
    21    89    91   ar
    22    78    77    1
    23    78    81    1
    24    92    94   ar
    25    91    93   ar
    26    94    93   ar
    27    94    95    1
    28    76    74    1
    29    24    22   ar
    30   138   137    1
    31    16    17    1
    32    21    22   ar
    33    21    20    1
    34    81    83    1
    35    81    82    1
    36   130   128   am
    37   129   128    2
    38    20    17    1
    39   137   136    1
    40    75    74    1
    41    74    73    1
    42    17    18    1
    43   126   125    2
    44   125   124    1
    45   128   127    1
    46   136   135    1
    47    73    70    1
    48    70    71    1
    49    70    69    1
    50   104   105    1
    51   131   132    1
    52    71    72    2
    53   124   127    1
    54   124   123    1
    55    18    19    2
    56    68    66   ar
    57    68    67   ar
    58   135   132    1
    59    66    64   ar
    60   132   133    1
    61   105   108    1
    62   105   106    1
    63   111   113   ar
    64   111   109   ar
    65    67    65   ar
    66    33    31    1
    67   108   109    1
    68   113   114   ar
    69   107   106    2
    70   109   110   ar
    71    64    63   ar
    72   133   134    2
    73   133   139   am
    74    65    63   ar
    75    27    28    1
    76    57    55    1
    77    61    60    2
    78   114   112   ar
    79    31    28    1
    80    31    32    1
    81    53    52    2
    82    63    62    1
    83   139   140    1
    84    28    29    1
    85   110   112   ar
    86    14    12    1
    87    55    54    1
    88    55    56    1
    89    54    51    1
    90    60    59    1
    91    50    51    1
    92    52    51    1
    93    62    59    1
    94    58    59    1
    95    15    13    1
    96   140   141    1
    97   140   143    1
    98   121   119    1
    99    29    30    2
   100   145   143    1
   101    12    13    1
   102    12     9    1
   103   142   141    2
   104    11    10    2
   105    10     9    1
   106   141   146   am
   107   144   143    1
   108   118   117    2
   109    41    40    1
   110   117   116    1
   111     9     8    1
   112   119   116    1
   113   119   120    1
   114   146   147    1
   115    40    39    1
   116   116   115    1
   117   122   120    1
   118   147   148    1
   119    34    35    1
   120    35    38    1
   121    35    36    1
   122     6     5    1
   123     7     5    1
   124    48    46    1
   125    49    47    1
   126    39    38    1
   127    47    46    1
   128   148   149    2
   129     5     2    1
   130    36    37    2
   131    46    43    1
   132    43    44    1
   133    43    42    1
   134   157   155    1
   135   156   155    1
   136    44    45    2
   137   155   154    1
   138     2     1    1
   139     2     3    1
   140     3     4    2
   141   154   151    1
   142   150   151    1
   143   151   152    1
   144   152   153    2
