@<TRIPOS>MOLECULE
tmp/1dzmB00.pdb
 157 144 0 0 0
SMALL
GASTEIGER

@<TRIPOS>ATOM
      1  N         15.8540    8.4930   31.7270 N.3     8  THR8       -0.1218
      2  CA        16.5590    7.3530   31.1920 C.3     8  THR8        0.1862
      3  C         17.7820    7.0250   32.0770 C.2     8  THR8        0.2287
      4  O         18.5690    7.9470   32.3200 O.2     8  THR8       -0.2866
      5  CB        17.0700    7.6020   29.7640 C.3     8  THR8        0.1770
      6  OG1       15.9810    8.0850   28.9520 O.3     8  THR8       -0.2211
      7  CG2       17.5600    6.3390   29.0720 C.3     8  THR8        0.0375
      8  N         20.1940    2.1680   28.3160 N.3    11  ILE11      -0.1245
      9  CA        19.5530    1.6850   27.1030 C.3    11  ILE11       0.1561
     10  C         20.3810    0.6200   26.4500 C.2    11  ILE11       0.2260
     11  O         21.6280    0.7580   26.4650 O.2    11  ILE11      -0.2867
     12  CB        19.3690    2.8920   26.1210 C.3    11  ILE11       0.0252
     13  CG1       18.2580    3.8090   26.5900 C.3    11  ILE11       0.0019
     14  CG2       19.1560    2.3790   24.7100 C.3    11  ILE11       0.0019
     15  CD1       18.0090    4.9640   25.5840 C.3    11  ILE11       0.0001
     16  N         18.7950    7.2620   19.1740 N.3    25  PHE25      -0.1241
     17  CA        18.2600    6.5090   20.3240 C.3    25  PHE25       0.1605
     18  C         19.0480    6.7070   21.5780 C.2    25  PHE25       0.2264
     19  O         18.7320    6.0570   22.5850 O.2    25  PHE25      -0.2867
     20  CB        18.0310    5.0420   19.9380 C.3    25  PHE25       0.0534
     21  CG        16.8180    5.0530   19.0310 C.ar   25  PHE25      -0.0203
     22  CD1       15.5500    5.0370   19.5850 C.ar   25  PHE25      -0.0042
     23  CD2       16.9910    5.1460   17.6620 C.ar   25  PHE25      -0.0042
     24  CE1       14.4480    5.0790   18.7620 C.ar   25  PHE25      -0.0003
     25  CE2       15.8870    5.1800   16.8400 C.ar   25  PHE25      -0.0003
     26  CZ        14.6110    5.1520   17.3960 C.ar   25  PHE25      -0.0000
     27  N         18.4250    8.6270   24.0900 N.3    27  VAL27      -0.1245
     28  CA        17.2000    9.3400   24.4830 C.3    27  VAL27       0.1561
     29  C         17.2140    9.6420   25.9500 C.2    27  VAL27       0.2260
     30  O         17.3440    8.7370   26.8170 O.2    27  VAL27      -0.2867
     31  CB        15.9550    8.4620   24.1300 C.3    27  VAL27       0.0252
     32  CG1       14.6910    8.9930   24.7670 C.3    27  VAL27       0.0019
     33  CG2       15.8450    8.3280   22.6230 C.3    27  VAL27       0.0019
     34  N         14.9260   10.7210   28.6370 N.3    29  MET29      -0.1245
     35  CA        13.4900   10.8650   28.8640 C.3    29  MET29       0.1570
     36  C         13.2220   11.9350   29.8810 C.2    29  MET29       0.2261
     37  O         14.1000   12.2050   30.7290 O.2    29  MET29      -0.2867
     38  CB        12.8670    9.5120   29.3260 C.3    29  MET29       0.0387
     39  CG        11.3290    9.6520   29.3060 C.3    29  MET29       0.0595
     40  SD        10.7310    9.5940   27.6010 S.3    29  MET29      -0.1393
     41  CE        11.7290    8.5380   26.7160 C.3    29  MET29       0.0692
     42  N          6.5010   10.6470   30.5810 N.3    32  ILE32      -0.1245
     43  CA         5.6680    9.7340   29.8530 C.3    32  ILE32       0.1561
     44  C          4.2900    9.6960   30.5400 C.2    32  ILE32       0.2260
     45  O          4.1940    9.4010   31.7440 O.2    32  ILE32      -0.2867
     46  CB         6.1560    8.2830   29.7780 C.3    32  ILE32       0.0252
     47  CG1        7.6040    8.1130   29.4000 C.3    32  ILE32       0.0019
     48  CG2        5.2260    7.5460   28.7740 C.3    32  ILE32       0.0019
     49  CD1        8.0360    6.7970   28.7930 C.3    32  ILE32       0.0001
     50  N          5.0980   11.2310   25.0540 N.3    43  LEU43      -0.1301
     51  CA         6.4940   11.0920   25.5120 C.3    43  LEU43       0.1247
     52  C          7.1750   12.4710   25.3950 C.3    43  LEU43       0.2009
     53  O          7.1120   12.9750   24.2550 O.3    43  LEU43      -0.2188
     54  CB         7.2250   10.1730   24.5650 C.3    43  LEU43       0.0217
     55  CG         6.8760    8.6940   24.4410 C.3    43  LEU43       0.0015
     56  CD1        6.4850    8.1110   25.7670 C.3    43  LEU43       0.0000
     57  CD2        5.8040    8.4220   23.3870 C.3    43  LEU43       0.0000
     58  N         11.0650   14.0370   25.7500 N.3    45  PHE45      -0.1241
     59  CA        12.4660   13.6450   25.9990 C.3    45  PHE45       0.1605
     60  C         13.4200   14.5660   25.2250 C.2    45  PHE45       0.2264
     61  O         12.9870   15.2620   24.3050 O.2    45  PHE45      -0.2867
     62  CB        12.7770   12.2220   25.5500 C.3    45  PHE45       0.0534
     63  CG        12.5320   11.8800   24.1340 C.ar   45  PHE45      -0.0203
     64  CD1       13.4630   12.1110   23.1290 C.ar   45  PHE45      -0.0042
     65  CD2       11.2900   11.3430   23.7660 C.ar   45  PHE45      -0.0042
     66  CE1       13.2360   11.7920   21.8090 C.ar   45  PHE45      -0.0003
     67  CE2       11.0510   11.0160   22.4450 C.ar   45  PHE45      -0.0003
     68  CZ        11.9960   11.2250   21.4570 C.ar   45  PHE45      -0.0000
     69  N          6.0890   13.6670   21.6440 N.3    58  LEU58      -0.1245
     70  CA         5.5680   12.7210   20.6500 C.3    58  LEU58       0.1561
     71  C          4.2630   12.1420   21.1930 C.2    58  LEU58       0.2260
     72  O          4.0210   12.1850   22.3760 O.2    58  LEU58      -0.2867
     73  CB         6.5110   11.5450   20.3930 C.3    58  LEU58       0.0270
     74  CG         7.9790   11.8050   20.1110 C.3    58  LEU58       0.0019
     75  CD1        8.7170   10.5100   19.8200 C.3    58  LEU58       0.0001
     76  CD2        8.1660   12.7190   18.8890 C.3    58  LEU58       0.0001
     77  N          4.6400    4.5990   17.5930 N.3    70  VAL70      -0.1245
     78  CA         5.0670    6.0170   17.5790 C.3    70  VAL70       0.1561
     79  C          6.2000    6.2170   16.5950 C.2    70  VAL70       0.2260
     80  O          7.1830    5.4590   16.4640 O.2    70  VAL70      -0.2867
     81  CB         5.4460    6.4760   18.9960 C.3    70  VAL70       0.0252
     82  CG1        6.8340    5.9640   19.3880 C.3    70  VAL70       0.0019
     83  CG2        5.4340    7.9950   19.1190 C.3    70  VAL70       0.0019
     84  N          9.3900    8.0880   15.2890 N.3    72  TYR72      -0.1241
     85  CA        10.5810    8.7620   15.7680 C.3    72  TYR72       0.1605
     86  C         11.7690    8.0190   15.1750 C.2    72  TYR72       0.2264
     87  O         11.8940    6.8120   15.3240 O.2    72  TYR72      -0.2867
     88  CB        10.6270    8.8470   17.2910 C.3    72  TYR72       0.0534
     89  CG        11.9670    9.3970   17.7680 C.ar   72  TYR72      -0.0201
     90  CD1       12.2230   10.7600   17.7220 C.ar   72  TYR72      -0.0009
     91  CD2       12.9500    8.5550   18.2440 C.ar   72  TYR72      -0.0009
     92  CE1       13.4260   11.2740   18.1490 C.ar   72  TYR72       0.0417
     93  CE2       14.1680    9.0430   18.6670 C.ar   72  TYR72       0.0417
     94  CZ        14.4060   10.4010   18.6210 C.ar   72  TYR72       0.1957
     95  OH        15.6090   10.9080   19.0470 O.3    72  TYR72      -0.2866
     96  N          8.2900    2.9730   15.2750 N.3    76  ASN76      -0.1240
     97  CA         8.4910    2.2490   16.4990 C.3    76  ASN76       0.1653
     98  C          7.2360    1.5970   17.0160 C.2    76  ASN76       0.2266
     99  O          6.1220    2.1400   17.0450 O.2    76  ASN76      -0.2867
    100  CB         9.0580    3.0940   17.6540 C.3    76  ASN76       0.1155
    101  CG        10.1970    3.9500   17.1770 C.2    76  ASN76       0.2627
    102  OD1       10.0000    5.1400   16.7990 O.2    76  ASN76      -0.2716
    103  ND2       11.3610    3.3250   17.1410 N.am   76  ASN76      -0.0877
    104  N          6.5290   -0.2800   20.6110 N.3    78  PHE78      -0.1241
    105  CA         7.1150   -0.5540   21.9370 C.3    78  PHE78       0.1605
    106  C          6.0990   -1.1180   22.9010 C.2    78  PHE78       0.2264
    107  O          4.8850   -0.9450   22.8200 O.2    78  PHE78      -0.2867
    108  CB         7.8220    0.6560   22.4740 C.3    78  PHE78       0.0534
    109  CG         7.0010    1.8180   22.9840 C.ar   78  PHE78      -0.0203
    110  CD1        6.6080    1.8500   24.3120 C.ar   78  PHE78      -0.0042
    111  CD2        6.6850    2.8750   22.1590 C.ar   78  PHE78      -0.0042
    112  CE1        5.8740    2.9190   24.8160 C.ar   78  PHE78      -0.0003
    113  CE2        5.9360    3.9570   22.6500 C.ar   78  PHE78      -0.0003
    114  CZ         5.5370    3.9580   23.9670 C.ar   78  PHE78      -0.0000
    115  N         11.2020   -0.5770   28.9710 N.3    90  ILE90      -0.1245
    116  CA        10.5680   -0.5720   27.6600 C.3    90  ILE90       0.1561
    117  C         11.3020   -1.4090   26.6380 C.2    90  ILE90       0.2260
    118  O         12.5550   -1.2890   26.5560 O.2    90  ILE90      -0.2867
    119  CB        10.4990    0.9210   27.1700 C.3    90  ILE90       0.0252
    120  CG1        9.4590    1.6320   28.0760 C.3    90  ILE90       0.0019
    121  CG2       10.0300    0.9640   25.7310 C.3    90  ILE90       0.0019
    122  CD1        9.5070    3.1420   27.8920 C.3    90  ILE90       0.0001
    123  N         11.5280   -1.9520   22.6100 N.3    92  ASN92      -0.1240
    124  CA        11.0640   -1.2330   21.4050 C.3    92  ASN92       0.1653
    125  C         11.6340   -1.9300   20.1660 C.2    92  ASN92       0.2266
    126  O         12.7750   -2.4010   20.1940 O.2    92  ASN92      -0.2867
    127  CB        11.6360    0.1970   21.3980 C.3    92  ASN92       0.1155
    128  CG        11.1920    0.9720   20.1480 C.2    92  ASN92       0.2627
    129  OD1       10.0030    0.9500   19.8680 O.2    92  ASN92      -0.2716
    130  ND2       12.1060    1.6120   19.4210 N.am   92  ASN92      -0.0877
    131  N         15.5940   -2.6160   20.8680 N.3   104  MET104     -0.1230
    132  CA        16.1950   -1.8470   21.9160 C.3   104  MET104      0.1702
    133  C         15.4430   -2.0430   23.2510 C.2   104  MET104      0.2593
    134  O         14.2600   -2.3800   23.2120 O.2   104  MET104     -0.2718
    135  CB        16.1840   -0.3350   21.7180 C.3   104  MET104      0.0401
    136  CG        16.5460    0.2450   20.3850 C.3   104  MET104      0.0596
    137  SD        15.5180    1.7550   20.0640 S.3   104  MET104     -0.1393
    138  CE        15.8540    1.8200   18.2970 C.3   104  MET104      0.0692
    139  N         16.1010   -1.7150   24.3370 N.am  105  THR105     -0.1939
    140  CA        15.4530   -1.7010   25.6410 C.3   105  THR105      0.2028
    141  C         15.8520   -0.4630   26.3930 C.2   105  THR105      0.2642
    142  O         16.9500    0.1040   26.1930 O.2   105  THR105     -0.2714
    143  CB        15.9050   -2.9270   26.5150 C.3   105  THR105      0.1808
    144  OG1       17.3380   -3.0280   26.4060 O.3   105  THR105     -0.2208
    145  CG2       15.3160   -4.2030   25.9860 C.3   105  THR105      0.0379
    146  N         14.9700    0.0240   27.2600 N.am  106  GLY106     -0.1954
    147  CA        15.3160    1.1450   28.0970 C.3   106  GLY106      0.1869
    148  C         14.9060    0.8910   29.5400 C.2   106  GLY106      0.2309
    149  O         13.8180    0.3430   29.7430 O.2   106  GLY106     -0.2863
    150  N         14.0150    3.2350   32.7340 N.3   108  LEU108     -0.1245
    151  CA        13.7130    4.6020   33.1500 C.3   108  LEU108      0.1561
    152  C         13.5500    4.5920   34.6510 C.2   108  LEU108      0.2260
    153  O         13.1400    3.5560   35.1830 O.2   108  LEU108     -0.2867
    154  CB        12.4450    5.1490   32.4550 C.3   108  LEU108      0.0270
    155  CG        12.3160    4.7760   30.9740 C.3   108  LEU108      0.0019
    156  CD1       11.0200    5.3810   30.4040 C.3   108  LEU108      0.0001
    157  CD2       13.5050    5.3250   30.1900 C.3   108  LEU108      0.0001
@<TRIPOS>BOND
     1    86    87    2
     2    86    85    1
     3    96    97    1
     4    84    85    1
     5    85    88    1
     6    80    79    2
     7    97    98    1
     8    97   100    1
     9    79    78    1
    10   102   101    2
    11    25    26   ar
    12    25    23   ar
    13    98    99    2
    14   103   101   am
    15   101   100    1
    16    88    89    1
    17    26    24   ar
    18    78    77    1
    19    78    81    1
    20    23    21   ar
    21    90    89   ar
    22    90    92   ar
    23    89    91   ar
    24    92    94   ar
    25    91    93   ar
    26   138   137    1
    27    94    93   ar
    28    94    95    1
    29    24    22   ar
    30    76    74    1
    31    81    83    1
    32    81    82    1
    33    21    22   ar
    34    21    20    1
    35    16    17    1
    36   130   128   am
    37    75    74    1
    38   129   128    2
    39    20    17    1
    40   137   136    1
    41    74    73    1
    42   128   127    1
    43   125   126    2
    44   125   124    1
    45    17    18    1
    46   136   135    1
    47    73    70    1
    48   104   105    1
    49    70    71    1
    50    70    69    1
    51   131   132    1
    52    71    72    2
    53   127   124    1
    54   124   123    1
    55    68    66   ar
    56    68    67   ar
    57    18    19    2
    58   135   132    1
    59    66    64   ar
    60   132   133    1
    61   105   108    1
    62   105   106    1
    63   111   113   ar
    64   111   109   ar
    65    67    65   ar
    66   108   109    1
    67    33    31    1
    68   113   114   ar
    69   107   106    2
    70   109   110   ar
    71    64    63   ar
    72   134   133    2
    73   133   139   am
    74    57    55    1
    75    65    63   ar
    76   114   112   ar
    77    27    28    1
    78    31    28    1
    79    31    32    1
    80    63    62    1
    81    53    52    1
    82    61    60    2
    83   110   112   ar
    84   139   140    1
    85    55    54    1
    86    55    56    1
    87    28    29    1
    88    54    51    1
    89    14    12    1
    90    50    51    1
    91    60    59    1
    92    52    51    1
    93    62    59    1
    94    15    13    1
    95   140   141    1
    96   140   143    1
    97   121   119    1
    98    58    59    1
    99    29    30    2
   100   145   143    1
   101    12    13    1
   102    12     9    1
   103   142   141    2
   104   141   146   am
   105   144   143    1
   106    10    11    2
   107    10     9    1
   108   118   117    2
   109   117   116    1
   110    41    40    1
   111     9     8    1
   112   119   116    1
   113   119   120    1
   114   146   147    1
   115    40    39    1
   116   116   115    1
   117   122   120    1
   118   147   148    1
   119    34    35    1
   120    48    46    1
   121    49    47    1
   122    35    38    1
   123    35    36    1
   124     6     5    1
   125     7     5    1
   126    39    38    1
   127    47    46    1
   128   148   149    2
   129     5     2    1
   130    46    43    1
   131    43    44    1
   132    43    42    1
   133    36    37    2
   134   157   155    1
   135   156   155    1
   136    44    45    2
   137   155   154    1
   138     2     1    1
   139     2     3    1
   140     3     4    2
   141   154   151    1
   142   150   151    1
   143   151   152    1
   144   152   153    2
