@<TRIPOS>MOLECULE
tmp/1dzpA00.pdb
 149 137 0 0 0
SMALL
GASTEIGER

@<TRIPOS>ATOM
      1  N          7.5120   31.5420    9.8400 N.3    10  THR10      -0.1218
      2  CA         7.4340   30.2470    9.1240 C.3    10  THR10       0.1862
      3  C          8.4750   30.1610    7.9880 C.2    10  THR10       0.2287
      4  O          8.5920   31.0850    7.2110 O.2    10  THR10      -0.2866
      5  CB         6.0530   30.0830    8.4620 C.3    10  THR10       0.1770
      6  OG1        5.0600   30.3060    9.4930 O.3    10  THR10      -0.2211
      7  CG2        5.8450   28.6540    7.9250 C.3    10  THR10       0.0375
      8  N          6.0840   24.6740    5.0720 N.3    13  ILE13      -0.1245
      9  CA         4.8880   23.9710    5.5790 C.3    13  ILE13       0.1561
     10  C          4.6170   22.7180    4.7400 C.2    13  ILE13       0.2260
     11  O          4.8640   22.7480    3.5430 O.2    13  ILE13      -0.2867
     12  CB         3.6610   24.9060    5.5290 C.3    13  ILE13       0.0252
     13  CG1        3.7710   26.0030    6.6220 C.3    13  ILE13       0.0019
     14  CG2        2.3640   24.1360    5.7190 C.3    13  ILE13       0.0019
     15  CD1        2.6260   27.0540    6.4620 C.3    13  ILE13       0.0001
     16  N         -4.1100   27.7670    5.3260 N.3    27  PHE27      -0.1241
     17  CA        -2.9200   27.3620    6.0400 C.3    27  PHE27       0.1605
     18  C         -1.6020   27.7290    5.4170 C.2    27  PHE27       0.2264
     19  O         -0.5460   27.2050    5.8260 O.2    27  PHE27      -0.2867
     20  CB        -2.9630   25.8890    6.4830 C.3    27  PHE27       0.0534
     21  CG        -4.0440   25.6830    7.5310 C.ar   27  PHE27      -0.0203
     22  CD1       -3.7460   25.8670    8.8620 C.ar   27  PHE27      -0.0042
     23  CD2       -5.3280   25.3390    7.1680 C.ar   27  PHE27      -0.0042
     24  CE1       -4.7410   25.7140    9.8140 C.ar   27  PHE27      -0.0003
     25  CE2       -6.3420   25.1750    8.1060 C.ar   27  PHE27      -0.0003
     26  CZ        -6.0330   25.3860    9.4390 C.ar   27  PHE27      -0.0000
     27  N          0.3860   30.0600    6.2540 N.3    29  VAL29      -0.1245
     28  CA         0.5100   30.9440    7.4370 C.3    29  VAL29       0.1561
     29  C          1.9120   31.4800    7.6180 C.2    29  VAL29       0.2260
     30  O          2.8690   30.7320    7.6480 O.2    29  VAL29      -0.2867
     31  CB         0.1080   30.1430    8.6920 C.3    29  VAL29       0.0252
     32  CG1        0.4390   30.9460    9.9670 C.3    29  VAL29       0.0019
     33  CG2       -1.3820   29.8550    8.6210 C.3    29  VAL29       0.0019
     34  N          4.0000   32.9630   10.1950 N.3    31  MET31      -0.1245
     35  CA         3.9910   33.2330   11.6290 C.3    31  MET31       0.1570
     36  C          4.8310   34.4880   11.9970 C.2    31  MET31       0.2261
     37  O          5.7850   34.8500   11.2680 O.2    31  MET31      -0.2867
     38  CB         4.6030   32.0010   12.3610 C.3    31  MET31       0.0387
     39  CG         4.2150   32.0260   13.8390 C.3    31  MET31       0.0595
     40  SD         2.4760   31.8200   14.2380 S.3    31  MET31      -0.1393
     41  CE         2.1840   30.1890   13.6250 C.3    31  MET31       0.0692
     42  N         -1.0770   33.0670   19.4940 N.3    45  LEU45      -0.1245
     43  CA        -0.4850   33.0080   18.1620 C.3    45  LEU45       0.1561
     44  C         -0.7580   34.2630   17.3560 C.2    45  LEU45       0.2260
     45  O         -1.8930   34.6840   17.1890 O.2    45  LEU45      -0.2867
     46  CB        -1.1320   31.8060   17.3820 C.3    45  LEU45       0.0270
     47  CG        -1.0790   30.5060   18.2210 C.3    45  LEU45       0.0019
     48  CD1       -2.1550   29.5270   17.8120 C.3    45  LEU45       0.0001
     49  CD2        0.3180   29.9080   18.0930 C.3    45  LEU45       0.0001
     50  N          0.0730   35.9370   13.4850 N.3    47  PHE47      -0.1241
     51  CA         0.5620   35.5910   12.1440 C.3    47  PHE47       0.1605
     52  C         -0.1980   36.3400   11.0610 C.2    47  PHE47       0.2264
     53  O         -1.2070   36.9740   11.3300 O.2    47  PHE47      -0.2867
     54  CB         0.3560   34.0910   11.8930 C.3    47  PHE47       0.0534
     55  CG        -1.0580   33.5670   11.9840 C.ar   47  PHE47      -0.0203
     56  CD1       -1.8730   33.5560   10.8790 C.ar   47  PHE47      -0.0042
     57  CD2       -1.5040   33.0020   13.1650 C.ar   47  PHE47      -0.0042
     58  CE1       -3.1900   33.0640   10.9240 C.ar   47  PHE47      -0.0003
     59  CE2       -2.7930   32.4830   13.2350 C.ar   47  PHE47      -0.0003
     60  CZ        -3.6270   32.5010   12.1240 C.ar   47  PHE47      -0.0000
     61  N         -4.6150   34.7970   17.6810 N.3    60  LEU60      -0.1245
     62  CA        -5.4950   33.7850   18.2270 C.3    60  LEU60       0.1561
     63  C         -5.0190   33.3200   19.5980 C.2    60  LEU60       0.2260
     64  O         -3.8620   33.4910   19.9290 O.2    60  LEU60      -0.2867
     65  CB        -5.6140   32.5690   17.3190 C.3    60  LEU60       0.0270
     66  CG        -5.9100   32.8290   15.8390 C.3    60  LEU60       0.0019
     67  CD1       -5.9030   31.4960   15.0940 C.3    60  LEU60       0.0001
     68  CD2       -7.2650   33.5190   15.7070 C.3    60  LEU60       0.0001
     69  N         -7.2220   25.1350   19.0730 N.3    72  VAL72      -0.1245
     70  CA        -7.4310   26.5080   18.6630 C.3    72  VAL72       0.1561
     71  C         -8.3950   26.5150   17.4910 C.2    72  VAL72       0.2260
     72  O         -8.2850   25.6340   16.6280 O.2    72  VAL72      -0.2867
     73  CB        -6.1440   27.2630   18.3130 C.3    72  VAL72       0.0252
     74  CG1       -5.5300   26.7370   17.0310 C.3    72  VAL72       0.0019
     75  CG2       -6.3630   28.7790   18.2320 C.3    72  VAL72       0.0019
     76  N         -9.6530   28.0020   14.0370 N.3    74  TYR74      -0.1241
     77  CA        -9.1970   28.7960   12.9000 C.3    74  TYR74       0.1605
     78  C         -9.4500   27.9680   11.6270 C.2    74  TYR74       0.2264
     79  O         -8.8850   26.8740   11.5410 O.2    74  TYR74      -0.2867
     80  CB        -7.6870   29.0730   12.9970 C.3    74  TYR74       0.0534
     81  CG        -7.1330   29.7050   11.7100 C.ar   74  TYR74      -0.0201
     82  CD1       -7.3550   31.0430   11.4290 C.ar   74  TYR74      -0.0009
     83  CD2       -6.4010   28.9290   10.8140 C.ar   74  TYR74      -0.0009
     84  CE1       -6.8470   31.6450   10.2740 C.ar   74  TYR74       0.0417
     85  CE2       -5.8820   29.5100    9.6500 C.ar   74  TYR74       0.0417
     86  CZ        -6.1100   30.8450    9.3910 C.ar   74  TYR74       0.1957
     87  OH        -5.5590   31.3810    8.2350 O.3    74  TYR74      -0.2866
     88  N         -8.5810   22.9230   15.3460 N.3    78  ASN78      -0.1240
     89  CA        -7.1880   22.4940   15.2460 C.3    78  ASN78       0.1653
     90  C         -6.6670   21.9520   16.5960 C.2    78  ASN78       0.2266
     91  O         -7.0220   22.4490   17.6500 O.2    78  ASN78      -0.2867
     92  CB        -6.2870   23.6580   14.8230 C.3    78  ASN78       0.1155
     93  CG        -6.7370   24.3220   13.5280 C.2    78  ASN78       0.2627
     94  OD1       -6.4230   23.8550   12.4310 O.2    78  ASN78      -0.2716
     95  ND2       -7.5110   25.4000   13.6700 N.am   78  ASN78      -0.0877
     96  N         -2.8630   21.0400   17.9090 N.3    80  PHE80      -0.1241
     97  CA        -1.4500   20.9440   17.4690 C.3    80  PHE80       0.1605
     98  C         -0.5360   20.6670   18.6510 C.2    80  PHE80       0.2264
     99  O         -0.9310   20.8260   19.8180 O.2    80  PHE80      -0.2867
    100  CB        -1.0500   22.2420   16.7820 C.3    80  PHE80       0.0534
    101  CG        -0.9610   23.4940   17.6390 C.ar   80  PHE80      -0.0203
    102  CD1        0.2190   23.8750   18.2520 C.ar   80  PHE80      -0.0042
    103  CD2       -2.0540   24.3040   17.7790 C.ar   80  PHE80      -0.0042
    104  CE1        0.2410   25.0520   19.0190 C.ar   80  PHE80      -0.0003
    105  CE2       -2.0550   25.4720   18.5180 C.ar   80  PHE80      -0.0003
    106  CZ        -0.8820   25.8550   19.1390 C.ar   80  PHE80      -0.0000
    107  N          6.0530   22.2560   14.2870 N.3    92  ILE92      -0.1245
    108  CA         4.7060   22.0720   14.8180 C.3    92  ILE92       0.1561
    109  C          3.9500   21.0670   13.9740 C.2    92  ILE92       0.2260
    110  O          4.1000   21.1510   12.7540 O.2    92  ILE92      -0.2867
    111  CB         3.9830   23.4160   14.8870 C.3    92  ILE92       0.0252
    112  CG1        4.6310   24.2020   16.0730 C.3    92  ILE92       0.0019
    113  CG2        2.4810   23.2360   15.0990 C.3    92  ILE92       0.0019
    114  CD1        4.0060   25.5250   16.3820 C.3    92  ILE92       0.0001
    115  N          0.0690   19.8050   13.2350 N.3    94  ASN94      -0.1240
    116  CA        -1.2950   20.2080   13.4500 C.3    94  ASN94       0.1653
    117  C         -2.2860   19.2940   12.7000 C.2    94  ASN94       0.2266
    118  O         -1.9980   18.8420   11.6010 O.2    94  ASN94      -0.2867
    119  CB        -1.5180   21.6390   12.8950 C.3    94  ASN94       0.1155
    120  CG        -2.9220   22.1330   13.1430 C.2    94  ASN94       0.2627
    121  OD1       -3.6380   22.5770   12.1750 O.2    94  ASN94      -0.2716
    122  ND2       -3.4660   22.0220   14.3470 N.am   94  ASN94      -0.0877
    123  N         -0.7800   18.5660    9.0170 N.3   106  MET106     -0.1230
    124  CA         0.1870   19.5180    8.4190 C.3   106  MET106      0.1702
    125  C          1.3680   19.6740    9.4140 C.2   106  MET106      0.2593
    126  O          1.2170   19.4090   10.5920 O.2   106  MET106     -0.2718
    127  CB        -0.4210   20.8930    8.2280 C.3   106  MET106      0.0401
    128  CG        -1.0620   21.5190    9.4270 C.3   106  MET106      0.0596
    129  SD        -2.1150   22.9250    8.9910 S.3   106  MET106     -0.1393
    130  CE        -3.5560   22.1050    8.3300 C.3   106  MET106      0.0692
    131  N          2.4550   20.1100    8.8550 N.am  107  THR107     -0.1939
    132  CA         3.6980   20.3370    9.6720 C.3   107  THR107      0.2028
    133  C          4.2190   21.6910    9.2780 C.2   107  THR107      0.2642
    134  O          4.0670   22.2380    8.1750 O.2   107  THR107     -0.2714
    135  CB         4.7560   19.2550    9.3320 C.3   107  THR107      0.1808
    136  OG1        4.9640   19.2460    7.8990 O.3   107  THR107     -0.2208
    137  CG2        4.3120   17.8620    9.7910 C.3   107  THR107      0.0379
    138  N          4.9070   22.3650   10.2250 N.am  108  GLY108     -0.1954
    139  CA         5.4780   23.6490    9.9050 C.3   108  GLY108      0.1869
    140  C          6.8450   23.7640   10.6360 C.2   108  GLY108      0.2309
    141  O          6.9890   23.2360   11.7470 O.2   108  GLY108     -0.2863
    142  N          9.4550   26.5210   11.9390 N.3   110  LEU110     -0.1245
    143  CA         9.5160   27.9080   12.3290 C.3   110  LEU110      0.1561
    144  C         10.9430   28.2740   12.7760 C.2   110  LEU110      0.2260
    145  O         11.6340   27.4400   13.3110 O.2   110  LEU110     -0.2867
    146  CB         8.5690   28.2320   13.5130 C.3   110  LEU110      0.0270
    147  CG         7.1250   27.6360   13.3360 C.3   110  LEU110      0.0019
    148  CD1        6.3330   28.0110   14.5830 C.3   110  LEU110      0.0001
    149  CD2        6.5140   28.2490   12.0710 C.3   110  LEU110      0.0001
@<TRIPOS>BOND
     1    11    10    2
     2    10     9    1
     3     8     9    1
     4    16    17    1
     5    18    19    2
     6    18    17    1
     7    12     9    1
     8    12    14    1
     9    12    13    1
    10    17    20    1
    11    27    28    1
    12    15    13    1
    13    20    21    1
    14    23    21   ar
    15    23    25   ar
    16     4     3    2
    17    28    29    1
    18    28    31    1
    19    21    22   ar
    20    29    30    2
    21   136   135    1
    22     7     5    1
    23     3     2    1
    24    25    26   ar
    25   134   133    2
    26   127   124    1
    27   127   128    1
    28    87    86    1
    29   130   129    1
    30   124   123    1
    31   124   125    1
    32     5     2    1
    33     5     6    1
    34    33    31    1
    35    31    32    1
    36   131   125   am
    37   131   132    1
    38    22    24   ar
    39   129   128    1
    40     2     1    1
    41   133   132    1
    42   133   138   am
    43   135   132    1
    44   135   137    1
    45    86    85   ar
    46    86    84   ar
    47   125   126    2
    48    26    24   ar
    49    85    83   ar
    50   139   138    1
    51   139   140    1
    52    34    35    1
    53    84    82   ar
    54   140   141    2
    55    83    81   ar
    56    56    58   ar
    57    56    55   ar
    58    58    60   ar
    59    52    53    2
    60    52    51    1
    61    37    36    2
    62    82    81   ar
    63    79    78    2
    64   118   117    2
    65    78    77    1
    66    35    36    1
    67    35    38    1
    68    81    80    1
    69    54    55    1
    70    54    51    1
    71   142   143    1
    72    55    57   ar
    73   149   147    1
    74    60    59   ar
    75    51    50    1
    76   121   120    2
    77   143   144    1
    78   143   146    1
    79    38    39    1
    80    94    93    2
    81   117   116    1
    82   110   109    2
    83   144   145    2
    84   119   120    1
    85   119   116    1
    86    77    80    1
    87    77    76    1
    88   120   122   am
    89    57    59   ar
    90   115   116    1
    91   147   146    1
    92   147   148    1
    93    93    95   am
    94    93    92    1
    95    41    40    1
    96    39    40    1
    97   109   108    1
    98   107   108    1
    99   108   111    1
   100    92    89    1
   101   111   113    1
   102   111   112    1
   103    67    66    1
   104    89    88    1
   105    89    90    1
   106    68    66    1
   107    66    65    1
   108   112   114    1
   109    90    91    2
   110    72    71    2
   111   100    97    1
   112   100   101    1
   113    74    73    1
   114    45    44    2
   115    65    62    1
   116    44    43    1
   117    46    43    1
   118    46    47    1
   119    97    96    1
   120    97    98    1
   121    71    70    1
   122   101   103   ar
   123   101   102   ar
   124    61    62    1
   125   103   105   ar
   126    48    47    1
   127    49    47    1
   128    43    42    1
   129    62    63    1
   130    75    73    1
   131   102   104   ar
   132    73    70    1
   133   105   106   ar
   134    98    99    2
   135    70    69    1
   136   104   106   ar
   137    63    64    2
