@<TRIPOS>MOLECULE
tmp/1dzqC01.pdb
 83 79 0 0 0
SMALL
GASTEIGER

@<TRIPOS>ATOM
      1  N         83.4890   12.1530   38.1900 N.3    83  VAL83      -0.1231
      2  CA        82.2030   11.4780   38.0580 C.3    83  VAL83       0.1692
      3  C         82.3480   10.1520   38.8190 C.2    83  VAL83       0.2592
      4  O         83.4730    9.6810   39.0090 O.2    83  VAL83      -0.2718
      5  CB        81.8860   11.2170   36.5580 C.3    83  VAL83       0.0266
      6  CG1       81.7460   12.5340   35.8150 C.3    83  VAL83       0.0020
      7  CG2       82.9930   10.3850   35.9090 C.3    83  VAL83       0.0020
      8  N         81.2520    9.5170   39.2340 N.am   84  ASP84      -0.1974
      9  CA        79.8880    9.9750   39.0330 C.3    84  ASP84       0.1709
     10  C         79.1780   10.3590   40.3220 C.2    84  ASP84       0.2293
     11  O         78.1720   11.0730   40.2960 O.2    84  ASP84      -0.2864
     12  CB        79.0860    8.8570   38.3780 C.3    84  ASP84       0.1436
     13  CG        78.6810    9.1870   36.9830 C.2    84  ASP84       0.3671
     14  OD1       79.5040    8.9600   36.0830 O.co2  84  ASP84      -0.2456
     15  OD2       77.5500    9.6880   36.7970 O.co2  84  ASP84      -0.2456
     16  N         74.1530    1.5920   35.1740 N.3   102  SER102     -0.1202
     17  CA        75.2650    2.4570   34.8220 C.3   102  SER102      0.2020
     18  C         75.7770    3.2050   36.0460 C.2   102  SER102      0.2619
     19  O         75.1220    3.2330   37.0870 O.2   102  SER102     -0.2717
     20  CB        74.8480    3.4460   33.7350 C.3   102  SER102      0.2103
     21  OG        73.7970    4.2870   34.1770 O.3   102  SER102     -0.2182
     22  N         76.9560    3.8060   35.9140 N.am  103  ALA103     -0.1965
     23  CA        77.5660    4.5660   36.9970 C.3   103  ALA103      0.1728
     24  C         76.6730    5.7240   37.4180 C.2   103  ALA103      0.2616
     25  O         76.5700    6.0360   38.6000 O.2   103  ALA103     -0.2715
     26  CB        78.9140    5.0840   36.5650 C.3   103  ALA103      0.0334
     27  N         76.0140    6.3450   36.4440 N.am  104  GLY104     -0.1955
     28  CA        75.1280    7.4620   36.7280 C.3   104  GLY104      0.1869
     29  C         73.9350    7.0760   37.5800 C.2   104  GLY104      0.2309
     30  O         73.2320    7.9510   38.1020 O.2   104  GLY104     -0.2863
     31  N         78.2680   14.3580   38.9950 N.3   128  TYR128     -0.1241
     32  CA        78.0730   14.6010   37.5680 C.3   128  TYR128      0.1605
     33  C         76.6150   14.9470   37.2840 C.2   128  TYR128      0.2264
     34  O         75.7010   14.2240   37.6980 O.2   128  TYR128     -0.2867
     35  CB        78.4790   13.3770   36.7500 C.3   128  TYR128      0.0534
     36  CG        78.2000   13.5220   35.2720 C.ar  128  TYR128     -0.0201
     37  CD1       79.0390   14.2780   34.4580 C.ar  128  TYR128     -0.0009
     38  CD2       77.0790   12.9290   34.6940 C.ar  128  TYR128     -0.0009
     39  CE1       78.7700   14.4440   33.1030 C.ar  128  TYR128      0.0417
     40  CE2       76.7960   13.0890   33.3390 C.ar  128  TYR128      0.0417
     41  CZ        77.6450   13.8490   32.5470 C.ar  128  TYR128      0.1957
     42  OH        77.3700   14.0160   31.2030 O.3   128  TYR128     -0.2866
     43  N         73.9170   13.2390   29.3440 N.3   133  TYR133     -0.1227
     44  CA        73.8210   11.8990   29.9270 C.3   133  TYR133      0.1736
     45  C         72.9400   11.7110   31.1650 C.2   133  TYR133      0.2595
     46  O         72.4170   10.6210   31.3870 O.2   133  TYR133     -0.2718
     47  CB        75.2180   11.3660   30.2080 C.3   133  TYR133      0.0548
     48  CG        75.9890   11.0790   28.9500 C.ar  133  TYR133     -0.0200
     49  CD1       76.5620   12.1130   28.2000 C.ar  133  TYR133     -0.0009
     50  CD2       76.1380    9.7700   28.4980 C.ar  133  TYR133     -0.0009
     51  CE1       77.2640   11.8440   27.0240 C.ar  133  TYR133      0.0417
     52  CE2       76.8380    9.4860   27.3280 C.ar  133  TYR133      0.0417
     53  CZ        77.4010   10.5240   26.5960 C.ar  133  TYR133      0.1957
     54  OH        78.1020   10.2250   25.4490 O.3   133  TYR133     -0.2866
     55  N         72.8040   12.7540   31.9810 N.am  134  ASN134     -0.1974
     56  CA        71.9810   12.7050   33.1920 C.3   134  ASN134      0.1688
     57  C         70.9100   13.8000   33.1330 C.2   134  ASN134      0.2292
     58  O         70.9170   14.7300   33.9430 O.2   134  ASN134     -0.2864
     59  CB        72.8460   12.9240   34.4410 C.3   134  ASN134      0.1181
     60  CG        73.6620   11.6990   34.8350 C.2   134  ASN134      0.2629
     61  OD1       74.1830   11.6370   35.9420 O.2   134  ASN134     -0.2716
     62  ND2       73.7840   10.7360   33.9400 N.am  134  ASN134     -0.0877
     63  N         81.5560    6.7160   35.6250 N.3   217  GLY217     -0.1210
     64  CA        81.0950    6.5060   34.2640 C.3   217  GLY217      0.1956
     65  C         82.1000    6.7150   33.1510 C.2   217  GLY217      0.2611
     66  O         82.0010    6.0700   32.1100 O.2   217  GLY217     -0.2717
     67  N         83.0720    7.5910   33.3770 N.am  218  ASN218     -0.1974
     68  CA        84.0870    7.8990   32.3750 C.3   218  ASN218      0.1688
     69  C         85.4790    7.9590   33.0070 C.2   218  ASN218      0.2292
     70  O         85.7700    8.8460   33.8040 O.2   218  ASN218     -0.2864
     71  CB        83.7350    9.2290   31.6900 C.3   218  ASN218      0.1181
     72  CG        84.7780    9.6720   30.6860 C.2   218  ASN218      0.2629
     73  OD1       84.9790   10.8670   30.4880 O.2   218  ASN218     -0.2716
     74  ND2       85.4450    8.7130   30.0430 N.am  218  ASN218     -0.0877
     75  N         87.4510   11.2620   33.4820 N.3   221  GLU221     -0.1245
     76  CA        87.0800   12.1880   34.5460 C.3   221  GLU221      0.1567
     77  C         87.0110   11.4310   35.8740 C.2   221  GLU221      0.2260
     78  O         86.0280   11.5080   36.6150 O.2   221  GLU221     -0.2867
     79  CB        85.7420   12.8380   34.2130 C.3   221  GLU221      0.0388
     80  CG        85.7650   13.5800   32.8910 C.3   221  GLU221      0.1160
     81  CD        84.4480   14.2590   32.5890 C.2   221  GLU221      0.3649
     82  OE1       83.5250   13.5720   32.1080 O.co2 221  GLU221     -0.2457
     83  OE2       84.3330   15.4790   32.8370 O.co2 221  GLU221     -0.2457
@<TRIPOS>BOND
     1    54    53    1
     2    53    51   ar
     3    53    52   ar
     4    51    49   ar
     5    52    50   ar
     6    49    48   ar
     7    50    48   ar
     8    48    47    1
     9    43    44    1
    10    44    47    1
    11    44    45    1
    12    74    72   am
    13    73    72    2
    14    72    71    1
    15    45    46    2
    16    45    55   am
    17    42    41    1
    18    71    68    1
    19    55    56    1
    20    82    81   ar
    21    66    65    2
    22    68    69    1
    23    68    67    1
    24    41    39   ar
    25    41    40   ar
    26    81    83   ar
    27    81    80    1
    28    80    79    1
    29    69    70    2
    30    39    37   ar
    31    57    56    1
    32    57    58    2
    33    65    67   am
    34    65    64    1
    35    56    59    1
    36    40    38   ar
    37    75    76    1
    38    20    21    1
    39    20    17    1
    40    62    60   am
    41    79    76    1
    42    64    63    1
    43    59    60    1
    44    37    36   ar
    45    76    77    1
    46    38    36   ar
    47    17    16    1
    48    17    18    1
    49    60    61    2
    50    36    35    1
    51     6     5    1
    52    77    78    2
    53     7     5    1
    54    22    18   am
    55    22    23    1
    56    18    19    2
    57    14    13   ar
    58    27    28    1
    59    27    24   am
    60     5     2    1
    61    26    23    1
    62    28    29    1
    63    35    32    1
    64    15    13   ar
    65    13    12    1
    66    23    24    1
    67    33    32    1
    68    33    34    2
    69    24    25    2
    70    32    31    1
    71    29    30    2
    72     2     1    1
    73     2     3    1
    74    12     9    1
    75     3     4    2
    76     3     8   am
    77     9     8    1
    78     9    10    1
    79    11    10    2
