@<TRIPOS>MOLECULE
tmp/1dztB01.pdb
 141 133 0 0 0
SMALL
GASTEIGER

@<TRIPOS>ATOM
      1  N          9.8310   40.0450   38.0790 N.3    48  GLN48      -0.1245
      2  CA        10.2110   41.3240   37.5110 C.3    48  GLN48       0.1566
      3  C         11.6780   41.3420   37.0770 C.2    48  GLN48       0.2260
      4  O         12.5440   40.8780   37.8190 O.2    48  GLN48      -0.2867
      5  CB         9.9710   42.4010   38.5830 C.3    48  GLN48       0.0367
      6  CG         9.9000   43.8220   38.0970 C.3    48  GLN48       0.0905
      7  CD         9.7980   44.8130   39.2550 C.2    48  GLN48       0.2608
      8  OE1        8.9270   44.7020   40.1050 O.2    48  GLN48      -0.2717
      9  NE2       10.6950   45.7770   39.2840 N.am   48  GLN48      -0.0878
     10  N         14.7150   43.9130   35.7730 N.3    50  ASN50      -0.1240
     11  CA        15.0540   45.3280   35.7300 C.3    50  ASN50       0.1653
     12  C         16.3410   45.5000   34.9450 C.2    50  ASN50       0.2266
     13  O         17.1650   44.5800   34.8660 O.2    50  ASN50      -0.2867
     14  CB        15.2220   45.8980   37.1490 C.3    50  ASN50       0.1155
     15  CG        14.0030   45.6540   38.0290 C.2    50  ASN50       0.2627
     16  OD1       12.8840   45.9750   37.6600 O.2    50  ASN50      -0.2716
     17  ND2       14.2290   45.0900   39.2140 N.am   50  ASN50      -0.0877
     18  N         19.2860   48.6840   34.2430 N.3    52  SER52      -0.1217
     19  CA        19.7190   50.0420   34.5300 C.3    52  SER52       0.1889
     20  C         21.0660   50.3540   33.9190 C.2    52  SER52       0.2288
     21  O         21.8390   49.4530   33.5880 O.2    52  SER52      -0.2866
     22  CB        19.8180   50.2530   36.0400 C.3    52  SER52       0.2089
     23  OG        20.8930   49.4890   36.5590 O.3    52  SER52      -0.2183
     24  N         24.8720   52.5010   43.6750 N.3    60  ARG60      -0.1245
     25  CA        23.4610   52.4850   44.0100 C.3    60  ARG60       0.1563
     26  C         23.3480   51.8680   45.3940 C.2    60  ARG60       0.2260
     27  O         23.4900   50.6590   45.5600 O.2    60  ARG60      -0.2867
     28  CB        22.6560   51.7190   42.9530 C.3    60  ARG60       0.0307
     29  CG        22.6470   52.4250   41.5720 C.3    60  ARG60       0.0489
     30  CD        22.2570   53.9170   41.7150 C.3    60  ARG60       0.2205
     31  NE        22.1710   54.6470   40.4470 N.pl3  60  ARG60      -0.0865
     32  CZ        22.0400   55.9720   40.3500 C.cat  60  ARG60       0.5346
     33  NH1       21.9810   56.7300   41.4450 N.pl3  60  ARG60       0.1354
     34  NH2       21.9650   56.5510   39.1550 N.pl3  60  ARG60       0.1354
     35  N         20.0350   48.5710   49.2160 N.3    63  HIS63      -0.1241
     36  CA        18.5780   48.4950   49.2030 C.3    63  HIS63       0.1621
     37  C         18.0010   47.1440   49.5780 C.2    63  HIS63       0.2264
     38  O         18.6530   46.1060   49.4520 O.2    63  HIS63      -0.2867
     39  CB        18.0900   48.8490   47.8000 C.3    63  HIS63       0.0745
     40  CG        18.5070   50.2110   47.3400 C.ar   63  HIS63       0.0817
     41  ND1       18.7460   50.5070   46.0150 N.ar   63  HIS63      -0.2268
     42  CD2       18.6940   51.3650   48.0230 C.ar   63  HIS63       0.1154
     43  CE1       19.0660   51.7830   45.8990 C.ar   63  HIS63       0.1986
     44  NE2       19.0400   52.3270   47.1030 N.ar   63  HIS63      -0.2212
     45  N         12.7400   41.0500   48.3520 N.3    71  GLN71      -0.1245
     46  CA        13.0420   40.5850   47.0050 C.3    71  GLN71       0.1566
     47  C         14.3290   39.7810   46.9290 C.2    71  GLN71       0.2260
     48  O         15.3820   40.2300   47.4020 O.2    71  GLN71      -0.2867
     49  CB        13.1930   41.7700   46.0400 C.3    71  GLN71       0.0367
     50  CG        11.9550   42.6250   45.8170 C.3    71  GLN71       0.0905
     51  CD        12.2730   43.8510   44.9860 C.2    71  GLN71       0.2608
     52  OE1       13.1280   44.6660   45.3610 O.2    71  GLN71      -0.2717
     53  NE2       11.6010   43.9910   43.8460 N.am   71  GLN71      -0.0878
     54  N         21.1260   44.9850   48.9790 N.3   120  HIS120     -0.1241
     55  CA        21.9600   44.9340   47.7920 C.3   120  HIS120      0.1621
     56  C         22.5420   46.2810   47.3680 C.2   120  HIS120      0.2264
     57  O         21.9310   47.3180   47.5740 O.2   120  HIS120     -0.2867
     58  CB        21.1590   44.3430   46.6410 C.3   120  HIS120      0.0745
     59  CG        21.8730   44.4030   45.3310 C.ar  120  HIS120      0.0817
     60  ND1       21.3690   45.0750   44.2380 N.ar  120  HIS120     -0.2268
     61  CD2       23.0670   43.8930   44.9440 C.ar  120  HIS120      0.1154
     62  CE1       22.2220   44.9740   43.2340 C.ar  120  HIS120      0.1986
     63  NE2       23.2610   44.2600   43.6350 N.ar  120  HIS120     -0.2212
     64  N         25.8010   48.2100   44.4900 N.3   122  PHE122     -0.1241
     65  CA        26.8750   48.0260   43.5290 C.3   122  PHE122      0.1605
     66  C         27.4200   49.3630   43.0640 C.2   122  PHE122      0.2264
     67  O         26.7250   50.3780   43.1190 O.2   122  PHE122     -0.2867
     68  CB        26.4040   47.1790   42.3290 C.3   122  PHE122      0.0534
     69  CG        25.4530   47.8820   41.4000 C.ar  122  PHE122     -0.0203
     70  CD1       25.9280   48.7030   40.3900 C.ar  122  PHE122     -0.0042
     71  CD2       24.0820   47.7250   41.5420 C.ar  122  PHE122     -0.0042
     72  CE1       25.0500   49.3630   39.5250 C.ar  122  PHE122     -0.0003
     73  CE2       23.1860   48.3790   40.6850 C.ar  122  PHE122     -0.0003
     74  CZ        23.6710   49.2010   39.6740 C.ar  122  PHE122     -0.0000
     75  N         23.3760   47.1950   34.2370 N.3   131  PHE131     -0.1241
     76  CA        23.0570   46.2070   35.2470 C.3   131  PHE131      0.1605
     77  C         21.6910   45.5880   35.0140 C.2   131  PHE131      0.2264
     78  O         20.7020   46.3040   34.8370 O.2   131  PHE131     -0.2867
     79  CB        23.0670   46.9140   36.6080 C.3   131  PHE131      0.0534
     80  CG        23.1150   45.9930   37.7930 C.ar  131  PHE131     -0.0203
     81  CD1       24.3250   45.4650   38.2330 C.ar  131  PHE131     -0.0042
     82  CD2       21.9580   45.6900   38.4990 C.ar  131  PHE131     -0.0042
     83  CE1       24.3780   44.6570   39.3640 C.ar  131  PHE131     -0.0003
     84  CE2       22.0060   44.8780   39.6300 C.ar  131  PHE131     -0.0003
     85  CZ        23.2200   44.3640   40.0610 C.ar  131  PHE131     -0.0000
     86  N         18.8610   42.5450   36.4380 N.3   133  TYR133     -0.1241
     87  CA        18.5670   41.5980   37.4870 C.3   133  TYR133      0.1605
     88  C         17.1200   41.1880   37.4990 C.2   133  TYR133      0.2264
     89  O         16.2660   41.8450   36.9030 O.2   133  TYR133     -0.2867
     90  CB        18.9900   42.1000   38.8720 C.3   133  TYR133      0.0534
     91  CG        18.1970   43.2460   39.4480 C.ar  133  TYR133     -0.0201
     92  CD1       18.4320   44.5640   39.0470 C.ar  133  TYR133     -0.0009
     93  CD2       17.2480   43.0140   40.4460 C.ar  133  TYR133     -0.0009
     94  CE1       17.7480   45.6170   39.6330 C.ar  133  TYR133      0.0417
     95  CE2       16.5610   44.0600   41.0370 C.ar  133  TYR133      0.0417
     96  CZ        16.8140   45.3580   40.6310 C.ar  133  TYR133      0.1957
     97  OH        16.1290   46.3890   41.2430 O.3   133  TYR133     -0.2866
     98  N          8.4780   45.5770   42.9090 N.3   139  TYR139     -0.1241
     99  CA         8.9440   46.8480   43.4450 C.3   139  TYR139      0.1605
    100  C          7.8140   47.4000   44.3140 C.2   139  TYR139      0.2264
    101  O          6.6490   47.4060   43.9100 O.2   139  TYR139     -0.2867
    102  CB         9.2090   47.7930   42.2770 C.3   139  TYR139      0.0534
    103  CG         9.3170   49.2760   42.6070 C.ar  139  TYR139     -0.0201
    104  CD1       10.3140   49.7640   43.4520 C.ar  139  TYR139     -0.0009
    105  CD2        8.4620   50.1990   41.9940 C.ar  139  TYR139     -0.0009
    106  CE1       10.4630   51.1390   43.6730 C.ar  139  TYR139      0.0417
    107  CE2        8.6000   51.5720   42.2050 C.ar  139  TYR139      0.0417
    108  CZ         9.6030   52.0360   43.0410 C.ar  139  TYR139      0.1957
    109  OH         9.7600   53.3990   43.2130 O.3   139  TYR139     -0.2866
    110  N         10.3970   50.0380   50.7710 N.3   144  GLU144     -0.1245
    111  CA        11.8150   50.3380   50.6360 C.3   144  GLU144      0.1567
    112  C         12.5330   50.6130   51.9390 C.2   144  GLU144      0.2260
    113  O         11.9620   51.1740   52.8760 O.2   144  GLU144     -0.2867
    114  CB        12.0390   51.5120   49.6600 C.3   144  GLU144      0.0388
    115  CG        11.6090   51.2060   48.2090 C.3   144  GLU144      0.1160
    116  CD        11.9900   52.2990   47.2010 C.2   144  GLU144      0.3649
    117  OE1       12.6150   53.3090   47.5990 O.co2 144  GLU144     -0.2457
    118  OE2       11.6640   52.1400   45.9990 O.co2 144  GLU144     -0.2457
    119  N         22.7460   58.9310   44.8140 N.3   167  SER167     -0.1217
    120  CA        21.4630   59.5440   44.5580 C.3   167  SER167      0.1889
    121  C         21.1510   60.2320   45.8690 C.2   167  SER167      0.2288
    122  O         21.7710   59.9420   46.8940 O.2   167  SER167     -0.2866
    123  CB        20.3920   58.4970   44.2990 C.3   167  SER167      0.2089
    124  OG        20.1160   57.7830   45.4910 O.3   167  SER167     -0.2183
    125  N         18.5600   59.9220   47.8010 N.3   169  LYS169     -0.1231
    126  CA        18.1170   58.8910   48.7360 C.3   169  LYS169      0.1693
    127  C         19.1930   57.9700   49.3270 C.2   169  LYS169      0.2592
    128  O         19.0880   57.5720   50.4860 O.2   169  LYS169     -0.2718
    129  CB        17.0230   58.0590   48.0620 C.3   169  LYS169      0.0285
    130  CG        15.8100   58.9010   47.6560 C.3   169  LYS169      0.0035
    131  CD        14.8560   58.1730   46.7240 C.3   169  LYS169      0.0206
    132  CE        14.2570   56.9350   47.3660 C.3   169  LYS169      0.1093
    133  NZ        13.3180   56.2390   46.4340 N.3   169  LYS169     -0.1314
    134  N         20.2230   57.6140   48.5680 N.am  170  ASP170     -0.1974
    135  CA        21.2370   56.7270   49.1450 C.3   170  ASP170      0.1709
    136  C         22.2380   57.4920   50.0040 C.2   170  ASP170      0.2293
    137  O         22.7580   56.9620   50.9940 O.2   170  ASP170     -0.2864
    138  CB        21.9700   55.9220   48.0600 C.3   170  ASP170      0.1436
    139  CG        21.0500   54.9540   47.3300 C.2   170  ASP170      0.3671
    140  OD1       20.1440   54.4100   47.9840 O.co2 170  ASP170     -0.2456
    141  OD2       21.2420   54.7120   46.1200 O.co2 170  ASP170     -0.2456
@<TRIPOS>BOND
     1    21    20    2
     2    20    19    1
     3    75    76    1
     4    18    19    1
     5    19    22    1
     6    78    77    2
     7    13    12    2
     8    12    11    1
     9    77    76    1
    10    76    79    1
    11    11    10    1
    12    11    14    1
    13    22    23    1
    14    86    87    1
    15    79    80    1
    16    89    88    2
    17     3     2    1
    18     3     4    2
    19    14    15    1
    20    87    88    1
    21    87    90    1
    22     2     1    1
    23     2     5    1
    24    16    15    2
    25    80    81   ar
    26    80    82   ar
    27    15    17   am
    28     6     5    1
    29     6     7    1
    30    81    83   ar
    31    82    84   ar
    32    90    91    1
    33    92    91   ar
    34    92    94   ar
    35    34    32    1
    36     7     9   am
    37     7     8    2
    38    83    85   ar
    39    91    93   ar
    40    72    74   ar
    41    72    70   ar
    42    84    85   ar
    43    94    96   ar
    44    74    73   ar
    45    32    31    2
    46    32    33    1
    47    70    69   ar
    48    93    95   ar
    49    31    30    1
    50    96    95   ar
    51    96    97    1
    52    73    71   ar
    53    69    71   ar
    54    69    68    1
    55    29    30    1
    56    29    28    1
    57   105   107   ar
    58   105   103   ar
    59   107   108   ar
    60   102   103    1
    61   102    99    1
    62    68    65    1
    63   103   104   ar
    64    98    99    1
    65    28    25    1
    66   108   109    1
    67   108   106   ar
    68    66    67    2
    69    66    65    1
    70    62    63   ar
    71    62    60   ar
    72    99   100    1
    73   104   106   ar
    74    65    64    1
    75    63    61   ar
    76    24    25    1
    77    53    51   am
    78   101   100    2
    79    25    26    1
    80    60    59   ar
    81   123   120    1
    82   123   124    1
    83   120   119    1
    84   120   121    1
    85    61    59   ar
    86    51    52    2
    87    51    50    1
    88    59    58    1
    89    26    27    2
    90    50    49    1
    91   121   122    2
    92    43    41   ar
    93    43    44   ar
    94   118   116   ar
    95    41    40   ar
    96    49    46    1
    97   141   139   ar
    98   133   132    1
    99    58    55    1
   100   131   132    1
   101   131   130    1
   102    47    46    1
   103    47    48    2
   104    46    45    1
   105    44    42   ar
   106   116   117   ar
   107   116   115    1
   108   139   140   ar
   109   139   138    1
   110    40    39    1
   111    40    42   ar
   112    56    57    2
   113    56    55    1
   114   130   129    1
   115    55    54    1
   116    39    36    1
   117   125   126    1
   118   138   135    1
   119   129   126    1
   120   115   114    1
   121   134   135    1
   122   134   127   am
   123   126   127    1
   124   135   136    1
   125    36    35    1
   126    36    37    1
   127   127   128    2
   128    38    37    2
   129   114   111    1
   130   136   137    2
   131   111   110    1
   132   111   112    1
   133   112   113    2
