@<TRIPOS>MOLECULE
tmp/1dztA00.pdb
 107 101 0 0 0
SMALL
GASTEIGER

@<TRIPOS>ATOM
      1  N         12.9240   30.2020   30.8450 N.3    48  GLN48      -0.1245
      2  CA        14.3000   30.2880   30.4170 C.3    48  GLN48       0.1566
      3  C         14.6400   31.6660   29.8280 C.2    48  GLN48       0.2260
      4  O         13.8510   32.2180   29.0780 O.2    48  GLN48      -0.2867
      5  CB        14.5060   29.2000   29.3540 C.3    48  GLN48       0.0367
      6  CG        15.9130   28.7870   29.0600 C.3    48  GLN48       0.0905
      7  CD        15.9800   27.7530   27.9330 C.2    48  GLN48       0.2608
      8  OE1       15.2540   26.7470   27.9390 O.2    48  GLN48      -0.2717
      9  NE2       16.8550   27.9930   26.9760 N.am   48  GLN48      -0.0878
     10  N         17.5690   33.5960   27.5990 N.3    50  ASN50      -0.1240
     11  CA        18.7170   33.3420   26.7470 C.3    50  ASN50       0.1653
     12  C         19.3710   34.6520   26.3620 C.2    50  ASN50       0.2266
     13  O         18.7020   35.7030   26.2550 O.2    50  ASN50      -0.2867
     14  CB        18.3200   32.5790   25.4820 C.3    50  ASN50       0.1155
     15  CG        17.5910   31.2890   25.7850 C.2    50  ASN50       0.2627
     16  OD1       17.9350   30.5710   26.7180 O.2    50  ASN50      -0.2716
     17  ND2       16.5910   30.9770   24.9800 N.am   50  ASN50      -0.0877
     18  N         20.2210   34.7770   12.4630 N.3    60  ARG60      -0.1245
     19  CA        19.9940   33.5760   13.2350 C.3    60  ARG60       0.1563
     20  C         18.5490   33.2370   13.0370 C.2    60  ARG60       0.2260
     21  O         17.6800   34.0490   13.3430 O.2    60  ARG60      -0.2867
     22  CB        20.2280   33.8310   14.7230 C.3    60  ARG60       0.0307
     23  CG        19.7990   32.6570   15.5990 C.3    60  ARG60       0.0489
     24  CD        19.7060   33.0170   17.1000 C.3    60  ARG60       0.2205
     25  NE        19.3620   31.8470   17.9100 N.pl3  60  ARG60      -0.0865
     26  CZ        20.1680   30.8040   18.1000 C.cat  60  ARG60       0.5346
     27  NH1       21.3750   30.7810   17.5400 N.pl3  60  ARG60       0.1354
     28  NH2       19.7580   29.7710   18.8270 N.pl3  60  ARG60       0.1354
     29  N         13.3340   29.6230   13.4860 N.3    63  HIS63      -0.1241
     30  CA        13.3440   28.5160   14.4230 C.3    63  HIS63       0.1621
     31  C         11.9980   28.4810   15.1380 C.2    63  HIS63       0.2264
     32  O         11.3090   29.4980   15.2980 O.2    63  HIS63      -0.2867
     33  CB        14.4250   28.7160   15.4760 C.3    63  HIS63       0.0745
     34  CG        15.8090   28.7320   14.9220 C.ar   63  HIS63       0.0817
     35  ND1       16.8140   29.5010   15.4630 N.ar   63  HIS63      -0.2268
     36  CD2       16.3570   28.0720   13.8730 C.ar   63  HIS63       0.1154
     37  CE1       17.9180   29.3180   14.7670 C.ar   63  HIS63       0.1986
     38  NE2       17.6700   28.4560   13.7990 N.ar   63  HIS63      -0.2212
     39  N          7.6550   27.3040   21.9910 N.3    71  GLN71      -0.1245
     40  CA         8.0760   28.3630   22.8900 C.3    71  GLN71       0.1566
     41  C          7.4960   29.7260   22.5280 C.2    71  GLN71       0.2260
     42  O          7.5240   30.1280   21.3730 O.2    71  GLN71      -0.2867
     43  CB         9.6050   28.4990   22.8790 C.3    71  GLN71       0.0367
     44  CG        10.3820   27.2680   23.3570 C.3    71  GLN71       0.0905
     45  CD        11.8710   27.4610   23.1700 C.2    71  GLN71       0.2608
     46  OE1       12.3360   27.6920   22.0460 O.2    71  GLN71      -0.2717
     47  NE2       12.6370   27.3850   24.2740 N.am   71  GLN71      -0.0878
     48  N         16.3360   37.1620   25.4000 N.3   133  TYR133     -0.1241
     49  CA        14.9540   36.7970   25.3030 C.3   133  TYR133      0.1605
     50  C         14.5140   35.7760   26.3200 C.2   133  TYR133      0.2264
     51  O         15.3370   35.0830   26.9230 O.2   133  TYR133     -0.2867
     52  CB        14.6300   36.3800   23.8710 C.3   133  TYR133      0.0534
     53  CG        15.2590   35.1100   23.3600 C.ar  133  TYR133     -0.0201
     54  CD1       16.5320   35.1120   22.7800 C.ar  133  TYR133     -0.0009
     55  CD2       14.5410   33.9250   23.3710 C.ar  133  TYR133     -0.0009
     56  CE1       17.0620   33.9630   22.2210 C.ar  133  TYR133      0.0417
     57  CE2       15.0590   32.7710   22.8140 C.ar  133  TYR133      0.0417
     58  CZ        16.3120   32.7920   22.2420 C.ar  133  TYR133      0.1957
     59  OH        16.7920   31.6240   21.7030 O.3   133  TYR133     -0.2866
     60  N         14.2610   24.6430   25.9600 N.3   139  TYR139     -0.1241
     61  CA        14.8970   24.2740   24.7290 C.3   139  TYR139      0.1605
     62  C         14.5990   22.7910   24.4970 C.2   139  TYR139      0.2264
     63  O         14.6670   21.9900   25.4260 O.2   139  TYR139     -0.2867
     64  CB        16.3930   24.4890   24.8890 C.3   139  TYR139      0.0534
     65  CG        17.2140   24.0510   23.7100 C.ar  139  TYR139     -0.0201
     66  CD1       16.8520   24.4180   22.4200 C.ar  139  TYR139     -0.0009
     67  CD2       18.4120   23.3580   23.8920 C.ar  139  TYR139     -0.0009
     68  CE1       17.6560   24.1220   21.3420 C.ar  139  TYR139      0.0417
     69  CE2       19.2320   23.0550   22.8100 C.ar  139  TYR139      0.0417
     70  CZ        18.8460   23.4480   21.5430 C.ar  139  TYR139      0.1957
     71  OH        19.6770   23.2260   20.4760 O.3   139  TYR139     -0.2866
     72  N         15.6900   20.3270   21.3530 N.3   141  PRO141     -0.2116
     73  CA        16.2480   20.0050   20.0410 C.3   141  PRO141      0.1372
     74  C         15.4180   19.0340   19.2100 C.2   141  PRO141      0.2244
     75  O         15.2640   19.2240   18.0120 O.2   141  PRO141     -0.2868
     76  CB        17.6260   19.4520   20.3920 C.3   141  PRO141      0.0268
     77  CG        17.9870   20.2540   21.6010 C.3   141  PRO141      0.0207
     78  CD        16.7020   20.0850   22.3960 C.3   141  PRO141      0.0892
     79  N         12.6180   20.9360   17.8480 N.3   144  GLU144     -0.1245
     80  CA        12.9860   22.0740   17.0390 C.3   144  GLU144      0.1567
     81  C         12.8610   21.8610   15.5470 C.2   144  GLU144      0.2260
     82  O         13.0860   20.7770   15.0210 O.2   144  GLU144     -0.2867
     83  CB        14.4050   22.5380   17.3720 C.3   144  GLU144      0.0388
     84  CG        14.7970   23.7890   16.6260 C.3   144  GLU144      0.1160
     85  CD        16.2180   24.2490   16.9000 C.2   144  GLU144      0.3649
     86  OE1       16.5060   24.7470   18.0130 O.co2 144  GLU144     -0.2457
     87  OE2       17.0470   24.1020   15.9790 O.co2 144  GLU144     -0.2457
     88  N         24.7000   30.0250   10.4980 N.3   167  SER167     -0.1202
     89  CA        25.3480   28.8920   11.1250 C.3   167  SER167      0.2020
     90  C         25.0930   27.8040   10.0850 C.2   167  SER167      0.2619
     91  O         24.2360   27.9780    9.2140 O.2   167  SER167     -0.2717
     92  CB        24.6110   28.5170   12.3920 C.3   167  SER167      0.2103
     93  OG        23.2950   28.1310   12.0350 O.3   167  SER167     -0.2182
     94  N         25.8020   26.6870   10.1660 N.am  168  ALA168     -0.1965
     95  CA        25.5820   25.6150    9.1990 C.3   168  ALA168      0.1728
     96  C         24.1790   25.0380    9.3810 C.2   168  ALA168      0.2616
     97  O         23.5470   24.5810    8.4270 O.2   168  ALA168     -0.2715
     98  CB        26.6380   24.5090    9.3750 C.3   168  ALA168      0.0334
     99  N         23.6960   25.0570   10.6170 N.am  169  LYS169     -0.1977
    100  CA        22.3710   24.5350   10.9070 C.3   169  LYS169      0.1596
    101  C         21.2960   25.3710   10.2070 C.2   169  LYS169      0.2287
    102  O         20.3770   24.8300    9.6190 O.2   169  LYS169     -0.2864
    103  CB        22.1020   24.5410   12.4180 C.3   169  LYS169      0.0298
    104  CG        21.0180   23.5690   12.8170 C.3   169  LYS169      0.0038
    105  CD        20.6420   23.6840   14.3100 C.3   169  LYS169      0.0206
    106  CE        19.9460   25.0060   14.5740 C.3   169  LYS169      0.1093
    107  NZ        19.3920   25.0830   15.9330 N.3   169  LYS169     -0.1314
@<TRIPOS>BOND
     1    97    96    2
     2    95    98    1
     3    95    96    1
     4    95    94    1
     5    91    90    2
     6    96    99   am
     7   102   101    2
     8    90    94   am
     9    90    89    1
    10   101   100    1
    11    88    89    1
    12    99   100    1
    13   100   103    1
    14    89    92    1
    15    93    92    1
    16   103   104    1
    17    18    19    1
    18   104   105    1
    19    20    19    1
    20    20    21    2
    21    19    22    1
    22    29    30    1
    23    38    36   ar
    24    38    37   ar
    25    36    34   ar
    26   105   106    1
    27    30    31    1
    28    30    33    1
    29   106   107    1
    30    22    23    1
    31    37    35   ar
    32    34    35   ar
    33    34    33    1
    34    82    81    2
    35    31    32    2
    36    81    80    1
    37    23    24    1
    38    87    85   ar
    39    84    85    1
    40    84    83    1
    41    85    86   ar
    42    80    83    1
    43    80    79    1
    44    24    25    1
    45    27    26    1
    46    25    26    2
    47    75    74    2
    48    26    28    1
    49    74    73    1
    50    73    76    1
    51    73    72    1
    52    76    77    1
    53    71    70    1
    54    68    70   ar
    55    68    66   ar
    56    72    78    1
    57    42    41    2
    58    70    69   ar
    59    77    78    1
    60    59    58    1
    61    39    40    1
    62    46    45    2
    63    56    58   ar
    64    56    54   ar
    65    58    57   ar
    66    66    65   ar
    67    41    40    1
    68    54    53   ar
    69    69    67   ar
    70    57    55   ar
    71    43    40    1
    72    43    44    1
    73    45    44    1
    74    45    47   am
    75    53    55   ar
    76    53    52    1
    77    65    67   ar
    78    65    64    1
    79    52    49    1
    80    62    61    1
    81    62    63    2
    82    61    64    1
    83    61    60    1
    84    17    15   am
    85    49    48    1
    86    49    50    1
    87    14    15    1
    88    14    11    1
    89    15    16    2
    90    13    12    2
    91    50    51    2
    92    12    11    1
    93    11    10    1
    94     9     7   am
    95     7     8    2
    96     7     6    1
    97     6     5    1
    98     4     3    2
    99     5     2    1
   100     3     2    1
   101     2     1    1
