@<TRIPOS>MOLECULE
tmp/1e00B00.pdb
 149 137 0 0 0
SMALL
GASTEIGER

@<TRIPOS>ATOM
      1  N         15.8990    8.9060   31.9820 N.3     9  THR9       -0.1218
      2  CA        16.6010    7.7480   31.5070 C.3     9  THR9        0.1862
      3  C         17.8570    7.4150   32.3380 C.2     9  THR9        0.2287
      4  O         18.6270    8.3470   32.5560 O.2     9  THR9       -0.2866
      5  CB        17.0920    7.9360   30.0680 C.3     9  THR9        0.1770
      6  OG1       15.9920    8.3850   29.2300 O.3     9  THR9       -0.2211
      7  CG2       17.5890    6.6330   29.4650 C.3     9  THR9        0.0375
      8  N         20.3120    2.5190   28.5210 N.3    12  ILE12      -0.1245
      9  CA        19.6650    2.0230   27.3310 C.3    12  ILE12       0.1561
     10  C         20.4890    0.9260   26.6900 C.2    12  ILE12       0.2260
     11  O         21.7480    1.0030   26.7000 O.2    12  ILE12      -0.2867
     12  CB        19.4470    3.1900   26.3000 C.3    12  ILE12       0.0252
     13  CG1       18.3950    4.1810   26.8240 C.3    12  ILE12       0.0019
     14  CG2       19.1240    2.6320   24.9400 C.3    12  ILE12       0.0019
     15  CD1       18.2810    5.4020   25.8720 C.3    12  ILE12       0.0001
     16  N         18.7640    7.4490   19.2220 N.3    26  PHE26      -0.1241
     17  CA        18.3000    6.6910   20.4070 C.3    26  PHE26       0.1605
     18  C         19.0320    6.9010   21.6900 C.2    26  PHE26       0.2264
     19  O         18.8140    6.2330   22.7000 O.2    26  PHE26      -0.2867
     20  CB        18.0370    5.2510   20.0310 C.3    26  PHE26       0.0534
     21  CG        16.7960    5.1620   19.1950 C.ar   26  PHE26      -0.0203
     22  CD1       15.5590    5.1160   19.8250 C.ar   26  PHE26      -0.0042
     23  CD2       16.8710    5.1590   17.8090 C.ar   26  PHE26      -0.0042
     24  CE1       14.4080    5.0260   19.0670 C.ar   26  PHE26      -0.0003
     25  CE2       15.7060    5.0870   17.0640 C.ar   26  PHE26      -0.0003
     26  CZ        14.4820    5.0120   17.6900 C.ar   26  PHE26      -0.0000
     27  N         18.2980    8.6990   24.1660 N.3    28  VAL28      -0.1245
     28  CA        17.1720    9.5620   24.5940 C.3    28  VAL28       0.1561
     29  C         17.2270    9.9360   26.0380 C.2    28  VAL28       0.2260
     30  O         17.3710    8.9970   26.8900 O.2    28  VAL28      -0.2867
     31  CB        15.8600    8.7950   24.2620 C.3    28  VAL28       0.0252
     32  CG1       14.6870    9.2540   25.1290 C.3    28  VAL28       0.0019
     33  CG2       15.5280    9.0210   22.7910 C.3    28  VAL28       0.0019
     34  N         14.9450   10.9800   28.6940 N.3    30  MET30      -0.1245
     35  CA        13.5650   11.2130   29.0650 C.3    30  MET30       0.1570
     36  C         13.3200   12.2550   30.1160 C.2    30  MET30       0.2261
     37  O         14.1080   12.5520   31.0340 O.2    30  MET30      -0.2867
     38  CB        12.9190    9.8540   29.5030 C.3    30  MET30       0.0387
     39  CG        11.4110    9.8000   29.3640 C.3    30  MET30       0.0595
     40  SD        10.8750    9.8050   27.6260 S.3    30  MET30      -0.1393
     41  CE        11.7240    8.4720   26.9060 C.3    30  MET30       0.0692
     42  N          5.1360   11.5050   25.2530 N.3    44  LEU44      -0.1245
     43  CA         6.5300   11.3460   25.6970 C.3    44  LEU44       0.1561
     44  C          7.2460   12.6970   25.4900 C.2    44  LEU44       0.2260
     45  O          7.0260   13.2620   24.4290 O.2    44  LEU44      -0.2867
     46  CB         7.2300   10.3170   24.8100 C.3    44  LEU44       0.0270
     47  CG         6.6940    8.8860   24.7340 C.3    44  LEU44       0.0019
     48  CD1        6.5690    8.2640   26.1100 C.3    44  LEU44       0.0001
     49  CD2        5.4190    8.8020   23.9310 C.3    44  LEU44       0.0001
     50  N         11.1160   14.3840   25.8050 N.3    46  PHE46      -0.1241
     51  CA        12.5310   14.0210   26.0990 C.3    46  PHE46       0.1605
     52  C         13.5050   14.8460   25.2480 C.2    46  PHE46       0.2264
     53  O         13.0730   15.5130   24.3110 O.2    46  PHE46      -0.2867
     54  CB        12.7840   12.5860   25.6770 C.3    46  PHE46       0.0534
     55  CG        12.4600   12.1430   24.2880 C.ar   46  PHE46      -0.0203
     56  CD1       13.4140   12.2170   23.2790 C.ar   46  PHE46      -0.0042
     57  CD2       11.2100   11.6020   23.9530 C.ar   46  PHE46      -0.0042
     58  CE1       13.1660   11.7790   21.9990 C.ar   46  PHE46      -0.0003
     59  CE2       10.9550   11.1840   22.6630 C.ar   46  PHE46      -0.0003
     60  CZ        11.9240   11.2730   21.6840 C.ar   46  PHE46      -0.0000
     61  N          6.2770   13.8100   21.6310 N.3    59  LEU59      -0.1245
     62  CA         5.6100   12.8770   20.7510 C.3    59  LEU59       0.1561
     63  C          4.3000   12.3260   21.3110 C.2    59  LEU59       0.2260
     64  O          3.9850   12.4440   22.4850 O.2    59  LEU59      -0.2867
     65  CB         6.4800   11.6440   20.4480 C.3    59  LEU59       0.0270
     66  CG         7.9720   11.8670   20.2340 C.3    59  LEU59       0.0019
     67  CD1        8.6340   10.5140   20.0080 C.3    59  LEU59       0.0001
     68  CD2        8.1990   12.7730   19.0090 C.3    59  LEU59       0.0001
     69  N          4.5220    4.6390   17.7750 N.3    71  VAL71      -0.1245
     70  CA         4.9320    6.0640   17.7430 C.3    71  VAL71       0.1561
     71  C          6.0490    6.3230   16.7710 C.2    71  VAL71       0.2260
     72  O          7.0400    5.5710   16.6520 O.2    71  VAL71      -0.2867
     73  CB         5.2840    6.5610   19.1430 C.3    71  VAL71       0.0252
     74  CG1        6.5270    5.8320   19.6850 C.3    71  VAL71       0.0019
     75  CG2        5.5500    8.0660   19.1860 C.3    71  VAL71       0.0019
     76  N          9.3680    8.0480   15.4030 N.3    73  TYR73      -0.1241
     77  CA        10.5640    8.7790   15.8600 C.3    73  TYR73       0.1605
     78  C         11.7400    8.0850   15.1910 C.2    73  TYR73       0.2264
     79  O         11.8220    6.8610   15.3150 O.2    73  TYR73      -0.2867
     80  CB        10.6960    8.8270   17.3790 C.3    73  TYR73       0.0534
     81  CG        12.0010    9.4620   17.8550 C.ar   73  TYR73      -0.0201
     82  CD1       12.1910   10.8300   17.8300 C.ar   73  TYR73      -0.0009
     83  CD2       13.0430    8.6720   18.3180 C.ar   73  TYR73      -0.0009
     84  CE1       13.3680   11.4150   18.2640 C.ar   73  TYR73       0.0417
     85  CE2       14.2360    9.2450   18.7360 C.ar   73  TYR73       0.0417
     86  CZ        14.4020   10.5920   18.7200 C.ar   73  TYR73       0.1957
     87  OH        15.5850   11.1860   19.1300 O.3    73  TYR73      -0.2866
     88  N          8.1140    2.9830   15.5380 N.3    77  ASN77      -0.1240
     89  CA         8.4410    2.2960   16.7700 C.3    77  ASN77       0.1653
     90  C          7.2210    1.6160   17.3550 C.2    77  ASN77       0.2266
     91  O          6.0950    2.1320   17.3310 O.2    77  ASN77      -0.2867
     92  CB         8.9780    3.2830   17.8320 C.3    77  ASN77       0.1155
     93  CG        10.1480    4.0840   17.3270 C.2    77  ASN77       0.2627
     94  OD1       10.0100    5.2010   16.7660 O.2    77  ASN77      -0.2716
     95  ND2       11.3320    3.5150   17.4600 N.am   77  ASN77      -0.0877
     96  N          6.4220   -0.1610   21.0270 N.3    79  PHE79      -0.1241
     97  CA         7.0250   -0.5710   22.3090 C.3    79  PHE79       0.1605
     98  C          6.0300   -1.0490   23.3300 C.2    79  PHE79       0.2264
     99  O          4.8090   -0.8690   23.2060 O.2    79  PHE79      -0.2867
    100  CB         7.8180    0.6180   22.8500 C.3    79  PHE79       0.0534
    101  CG         7.0220    1.7880   23.3420 C.ar   79  PHE79      -0.0203
    102  CD1        6.5280    1.8380   24.6290 C.ar   79  PHE79      -0.0042
    103  CD2        6.7890    2.8570   22.4990 C.ar   79  PHE79      -0.0042
    104  CE1        5.8210    2.9440   25.0800 C.ar   79  PHE79      -0.0003
    105  CE2        6.0750    3.9710   22.9250 C.ar   79  PHE79      -0.0003
    106  CZ         5.5940    3.9940   24.2180 C.ar   79  PHE79      -0.0000
    107  N         11.3580   -0.3240   29.3510 N.3    91  ILE91      -0.1245
    108  CA        10.6880   -0.3380   28.0490 C.3    91  ILE91       0.1561
    109  C         11.4040   -1.1860   27.0310 C.2    91  ILE91       0.2260
    110  O         12.6630   -1.1400   27.0330 O.2    91  ILE91      -0.2867
    111  CB        10.5480    1.1350   27.5280 C.3    91  ILE91       0.0252
    112  CG1        9.4740    1.8050   28.4050 C.3    91  ILE91       0.0019
    113  CG2       10.1700    1.1630   26.0450 C.3    91  ILE91       0.0019
    114  CD1        9.4030    3.3070   28.2560 C.3    91  ILE91       0.0001
    115  N         11.5350   -1.7720   22.9250 N.3    93  ASN93      -0.1240
    116  CA        11.0590   -1.1320   21.6870 C.3    93  ASN93       0.1653
    117  C         11.5450   -1.7900   20.4060 C.2    93  ASN93       0.2266
    118  O         12.7020   -2.2100   20.3220 O.2    93  ASN93      -0.2867
    119  CB        11.5370    0.3300   21.6340 C.3    93  ASN93       0.1155
    120  CG        11.0540    1.1520   20.4320 C.2    93  ASN93       0.2627
    121  OD1       11.8530    1.8090   19.7440 O.2    93  ASN93      -0.2716
    122  ND2        9.7800    1.0860   20.2070 N.am   93  ASN93      -0.0877
    123  N         15.6330   -2.5250   21.1230 N.3   105  MET105     -0.1230
    124  CA        16.2520   -1.7290   22.1750 C.3   105  MET105      0.1702
    125  C         15.5210   -1.8580   23.5090 C.2   105  MET105      0.2593
    126  O         14.3710   -2.3080   23.5510 O.2   105  MET105     -0.2718
    127  CB        16.2910   -0.2150   21.8760 C.3   105  MET105      0.0401
    128  CG        17.1470    0.2710   20.7380 C.3   105  MET105      0.0596
    129  SD        16.5150    1.8920   20.1270 S.3   105  MET105     -0.1393
    130  CE        14.9420    1.3020   19.4940 C.3   105  MET105      0.0692
    131  N         16.1870   -1.5030   24.5880 N.am  106  THR106     -0.1939
    132  CA        15.5790   -1.4680   25.9120 C.3   106  THR106      0.2028
    133  C         15.9970   -0.2320   26.6540 C.2   106  THR106      0.2642
    134  O         17.0270    0.4330   26.3950 O.2   106  THR106     -0.2714
    135  CB        15.9700   -2.7120   26.7550 C.3   106  THR106      0.1808
    136  OG1       17.4130   -2.7930   26.7430 O.3   106  THR106     -0.2208
    137  CG2       15.3410   -3.9450   26.2180 C.3   106  THR106      0.0379
    138  N         15.2170    0.2360   27.6180 N.am  107  GLY107     -0.1954
    139  CA        15.5030    1.3740   28.4170 C.3   107  GLY107      0.1869
    140  C         15.0540    1.2080   29.8590 C.2   107  GLY107      0.2309
    141  O         14.0280    0.5970   30.0670 O.2   107  GLY107     -0.2863
    142  N         14.0790    3.4960   33.0690 N.3   109  LEU109     -0.1245
    143  CA        13.8080    4.8620   33.4920 C.3   109  LEU109      0.1561
    144  C         13.6090    4.9050   35.0120 C.2   109  LEU109      0.2260
    145  O         13.1750    3.9200   35.6160 O.2   109  LEU109     -0.2867
    146  CB        12.5650    5.4470   32.7830 C.3   109  LEU109      0.0270
    147  CG        12.4720    5.1430   31.2820 C.3   109  LEU109      0.0019
    148  CD1       11.1610    5.7050   30.6930 C.3   109  LEU109      0.0001
    149  CD2       13.6530    5.7420   30.5540 C.3   109  LEU109      0.0001
@<TRIPOS>BOND
     1    78    79    2
     2    78    77    1
     3    76    77    1
     4    88    89    1
     5    77    80    1
     6    72    71    2
     7    94    93    2
     8    89    90    1
     9    89    92    1
    10    71    70    1
    11    25    26   ar
    12    25    23   ar
    13    93    95   am
    14    93    92    1
    15    91    90    2
    16    80    81    1
    17    26    24   ar
    18    70    69    1
    19    70    73    1
    20    23    21   ar
    21    82    81   ar
    22    82    84   ar
    23    81    83   ar
    24    84    86   ar
    25    83    85   ar
    26    86    85   ar
    27    86    87    1
    28    68    66    1
    29    24    22   ar
    30    73    75    1
    31    73    74    1
    32    21    22   ar
    33    21    20    1
    34    16    17    1
    35   130   129    1
    36   121   120    2
    37    67    66    1
    38    20    17    1
    39   129   128    1
    40   122   120   am
    41    66    65    1
    42   118   117    2
    43   117   116    1
    44    17    18    1
    45   120   119    1
    46    65    62    1
    47   128   127    1
    48    62    63    1
    49    62    61    1
    50    96    97    1
    51   123   124    1
    52    63    64    2
    53   119   116    1
    54    60    58   ar
    55    60    59   ar
    56   116   115    1
    57    18    19    2
    58   127   124    1
    59    58    56   ar
    60   124   125    1
    61    97   100    1
    62    97    98    1
    63   103   105   ar
    64   103   101   ar
    65    59    57   ar
    66    33    31    1
    67   100   101    1
    68   105   106   ar
    69    99    98    2
    70    56    55   ar
    71   101   102   ar
    72   125   126    2
    73   125   131   am
    74    49    47    1
    75    57    55   ar
    76    27    28    1
    77   106   104   ar
    78    31    28    1
    79    31    32    1
    80    55    54    1
    81    53    52    2
    82    45    44    2
    83   131   132    1
    84    28    29    1
    85   102   104   ar
    86    47    46    1
    87    47    48    1
    88    46    43    1
    89    14    12    1
    90    52    51    1
    91    42    43    1
    92    44    43    1
    93    54    51    1
    94    50    51    1
    95    15    13    1
    96   132   133    1
    97   132   135    1
    98    29    30    2
    99   113   111    1
   100   137   135    1
   101    12    13    1
   102    12     9    1
   103   134   133    2
   104   133   138   am
   105    10    11    2
   106    10     9    1
   107   136   135    1
   108    41    40    1
   109   109   110    2
   110   109   108    1
   111     9     8    1
   112   111   108    1
   113   111   112    1
   114   138   139    1
   115    40    39    1
   116   108   107    1
   117   114   112    1
   118   139   140    1
   119    34    35    1
   120    35    38    1
   121    35    36    1
   122     6     5    1
   123    39    38    1
   124     7     5    1
   125   140   141    2
   126     5     2    1
   127    36    37    2
   128   149   147    1
   129   148   147    1
   130   147   146    1
   131     2     1    1
   132     2     3    1
   133     3     4    2
   134   146   143    1
   135   142   143    1
   136   143   144    1
   137   144   145    2
