@<TRIPOS>MOLECULE
tmp/1e02B00.pdb
 157 144 0 0 0
SMALL
GASTEIGER

@<TRIPOS>ATOM
      1  N         15.9080    8.5540   31.7390 N.3     8  THR8       -0.1218
      2  CA        16.5710    7.4280   31.1510 C.3     8  THR8        0.1862
      3  C         17.7420    7.0980   31.9150 C.2     8  THR8        0.2287
      4  O         18.5530    7.9610   32.2650 O.2     8  THR8       -0.2866
      5  CB        17.0230    7.6320   29.7170 C.3     8  THR8        0.1770
      6  OG1       15.9360    8.1610   28.9230 O.3     8  THR8       -0.2211
      7  CG2       17.3390    6.2970   29.0550 C.3     8  THR8        0.0375
      8  N         20.0760    2.1820   28.2900 N.3    11  ILE11      -0.1245
      9  CA        19.5210    1.7960   27.1080 C.3    11  ILE11       0.1561
     10  C         20.2900    0.7690   26.4210 C.2    11  ILE11       0.2260
     11  O         21.4050    0.8650   26.2840 O.2    11  ILE11      -0.2867
     12  CB        19.4030    3.0720   26.0990 C.3    11  ILE11       0.0252
     13  CG1       18.3170    4.0210   26.5390 C.3    11  ILE11       0.0019
     14  CG2       19.0390    2.6650   24.6580 C.3    11  ILE11       0.0019
     15  CD1       18.1770    5.1400   25.6730 C.3    11  ILE11       0.0001
     16  N         18.5470    7.3250   18.9560 N.3    25  PHE25      -0.1241
     17  CA        18.0660    6.6210   20.1490 C.3    25  PHE25       0.1605
     18  C         18.8260    6.8020   21.4850 C.2    25  PHE25       0.2264
     19  O         18.5960    6.0800   22.4140 O.2    25  PHE25      -0.2867
     20  CB        17.7770    5.1790   19.7750 C.3    25  PHE25       0.0534
     21  CG        16.5050    4.9890   19.1040 C.ar   25  PHE25      -0.0203
     22  CD1       16.3550    5.1200   17.7330 C.ar   25  PHE25      -0.0042
     23  CD2       15.3070    4.7460   19.8850 C.ar   25  PHE25      -0.0042
     24  CE1       15.0960    4.9930   17.0950 C.ar   25  PHE25      -0.0003
     25  CE2       14.1190    4.6430   19.2670 C.ar   25  PHE25      -0.0003
     26  CZ        14.0270    4.7360   17.8410 C.ar   25  PHE25      -0.0000
     27  N         18.2130    8.4860   23.8640 N.3    27  VAL27      -0.1245
     28  CA        17.0500    9.3090   24.4500 C.3    27  VAL27       0.1561
     29  C         17.1340    9.5960   25.8410 C.2    27  VAL27       0.2260
     30  O         17.3320    8.7240   26.6500 O.2    27  VAL27      -0.2867
     31  CB        15.7410    8.6290   24.0330 C.3    27  VAL27       0.0252
     32  CG1       14.6070    9.0910   24.8790 C.3    27  VAL27       0.0019
     33  CG2       15.4460    8.8310   22.6610 C.3    27  VAL27       0.0019
     34  N         14.8870   10.7180   28.4160 N.3    29  MET29      -0.1245
     35  CA        13.4250   10.8670   28.8040 C.3    29  MET29       0.1570
     36  C         13.2440   11.9960   29.7970 C.2    29  MET29       0.2261
     37  O         14.1900   12.2850   30.5080 O.2    29  MET29      -0.2867
     38  CB        12.9070    9.5420   29.2860 C.3    29  MET29       0.0387
     39  CG        11.3880    9.3330   28.9720 C.3    29  MET29       0.0595
     40  SD        10.9680    8.9440   27.2420 S.3    29  MET29      -0.1393
     41  CE         9.9530   10.2680   27.0480 C.3    29  MET29       0.0692
     42  N          6.4310   10.7780   30.6840 N.3    32  ILE32      -0.1245
     43  CA         5.6430    9.8660   29.9160 C.3    32  ILE32       0.1561
     44  C          4.2620    9.8230   30.5710 C.2    32  ILE32       0.2260
     45  O          4.1130    9.5020   31.7290 O.2    32  ILE32      -0.2867
     46  CB         6.1980    8.4450   29.8900 C.3    32  ILE32       0.0252
     47  CG1        7.5520    8.4050   29.2700 C.3    32  ILE32       0.0019
     48  CG2        5.3000    7.5120   29.1990 C.3    32  ILE32       0.0019
     49  CD1        8.2670    7.0560   29.0780 C.3    32  ILE32       0.0001
     50  N          5.1710   11.1160   25.1050 N.3    43  LEU43      -0.1245
     51  CA         6.5160   11.0780   25.3950 C.3    43  LEU43       0.1561
     52  C          7.1520   12.4600   25.2860 C.2    43  LEU43       0.2260
     53  O          7.0130   13.1150   24.2980 O.2    43  LEU43      -0.2867
     54  CB         7.2070   10.1510   24.5040 C.3    43  LEU43       0.0270
     55  CG         6.8880    8.6520   24.2400 C.3    43  LEU43       0.0019
     56  CD1        6.7800    8.0450   25.5860 C.3    43  LEU43       0.0001
     57  CD2        5.6990    8.5210   23.3390 C.3    43  LEU43       0.0001
     58  N         10.9360   14.0710   25.7240 N.3    45  PHE45      -0.1241
     59  CA        12.2890   13.7680   25.9290 C.3    45  PHE45       0.1605
     60  C         13.2720   14.5970   25.0620 C.2    45  PHE45       0.2264
     61  O         12.8750   15.4260   24.3210 O.2    45  PHE45      -0.2867
     62  CB        12.6940   12.2610   25.6210 C.3    45  PHE45       0.0534
     63  CG        12.3890   11.8990   24.2400 C.ar   45  PHE45      -0.0203
     64  CD1       13.3210   12.0660   23.2450 C.ar   45  PHE45      -0.0042
     65  CD2       11.1860   11.3210   23.8310 C.ar   45  PHE45      -0.0042
     66  CE1       13.0630   11.6690   21.9140 C.ar   45  PHE45      -0.0003
     67  CE2       10.9180   10.9620   22.5760 C.ar   45  PHE45      -0.0003
     68  CZ        11.8830   11.1080   21.5900 C.ar   45  PHE45      -0.0000
     69  N          6.2210   13.5410   21.5290 N.3    58  LEU58      -0.1245
     70  CA         5.5810   12.5120   20.6650 C.3    58  LEU58       0.1561
     71  C          4.2620   12.0460   21.2180 C.2    58  LEU58       0.2260
     72  O          3.9130   12.0740   22.4030 O.2    58  LEU58      -0.2867
     73  CB         6.4550   11.4220   20.4180 C.3    58  LEU58       0.0270
     74  CG         7.8510   11.6730   19.8930 C.3    58  LEU58       0.0019
     75  CD1        8.5720   10.3990   19.7300 C.3    58  LEU58       0.0001
     76  CD2        7.9450   12.4120   18.6030 C.3    58  LEU58       0.0001
     77  N          4.3250    4.5200   17.6740 N.3    70  VAL70      -0.1245
     78  CA         4.8050    5.9960   17.7200 C.3    70  VAL70       0.1561
     79  C          5.8860    6.2280   16.6460 C.2    70  VAL70       0.2260
     80  O          6.7020    5.3850   16.3570 O.2    70  VAL70      -0.2867
     81  CB         5.2410    6.3740   19.0520 C.3    70  VAL70       0.0252
     82  CG1        6.4870    5.5680   19.5140 C.3    70  VAL70       0.0019
     83  CG2        5.5360    7.8250   19.1600 C.3    70  VAL70       0.0019
     84  N          9.1880    8.1020   15.3290 N.3    72  TYR72      -0.1241
     85  CA        10.3480    8.7940   15.8050 C.3    72  TYR72       0.1605
     86  C         11.5730    8.0190   15.1720 C.2    72  TYR72       0.2264
     87  O         11.7610    6.8520   15.5460 O.2    72  TYR72      -0.2867
     88  CB        10.4480    8.7550   17.3160 C.3    72  TYR72       0.0534
     89  CG        11.8190    9.3800   17.8690 C.ar   72  TYR72      -0.0201
     90  CD1       12.0840   10.7760   17.6950 C.ar   72  TYR72      -0.0009
     91  CD2       12.8150    8.5780   18.4860 C.ar   72  TYR72      -0.0009
     92  CE1       13.2380   11.2540   18.1830 C.ar   72  TYR72       0.0417
     93  CE2       13.9130    9.0880   18.8870 C.ar   72  TYR72       0.0417
     94  CZ        14.1720   10.4330   18.7510 C.ar   72  TYR72       0.1957
     95  OH        15.4630   10.9680   19.1960 O.3    72  TYR72      -0.2866
     96  N          7.8920    2.9480   15.2070 N.3    76  ASN76      -0.1240
     97  CA         8.2740    2.2340   16.4270 C.3    76  ASN76       0.1653
     98  C          7.1040    1.4120   16.9360 C.2    76  ASN76       0.2266
     99  O          5.9450    1.7680   16.7250 O.2    76  ASN76      -0.2867
    100  CB         8.6820    3.2320   17.5020 C.3    76  ASN76       0.1155
    101  CG         9.9750    3.9530   17.1580 C.2    76  ASN76       0.2627
    102  OD1        9.9340    5.1450   16.7880 O.2    76  ASN76      -0.2716
    103  ND2       11.1200    3.2940   17.2580 N.am   76  ASN76      -0.0877
    104  N          6.5740   -0.0740   20.7170 N.3    78  PHE78      -0.1241
    105  CA         7.1690   -0.5150   21.9870 C.3    78  PHE78       0.1605
    106  C          6.0910   -1.0290   22.9720 C.2    78  PHE78       0.2264
    107  O          4.8750   -0.8430   22.7720 O.2    78  PHE78      -0.2867
    108  CB         7.9420    0.6350   22.6370 C.3    78  PHE78       0.0534
    109  CG         7.1000    1.7560   23.2530 C.ar   78  PHE78      -0.0203
    110  CD1        6.6180    2.7850   22.4580 C.ar   78  PHE78      -0.0042
    111  CD2        6.8300    1.7500   24.6160 C.ar   78  PHE78      -0.0042
    112  CE1        5.8810    3.8170   23.0260 C.ar   78  PHE78      -0.0003
    113  CE2        6.0980    2.7840   25.1800 C.ar   78  PHE78      -0.0003
    114  CZ         5.6260    3.8200   24.3810 C.ar   78  PHE78      -0.0000
    115  N         11.2130   -0.5490   28.9650 N.3    90  ILE90      -0.1245
    116  CA        10.5110   -0.4610   27.6450 C.3    90  ILE90       0.1561
    117  C         11.2040   -1.1990   26.6420 C.2    90  ILE90       0.2260
    118  O         12.3240   -1.0510   26.4580 O.2    90  ILE90      -0.2867
    119  CB        10.3720    0.9920   27.2550 C.3    90  ILE90       0.0252
    120  CG1        9.3060    1.6940   28.2050 C.3    90  ILE90       0.0019
    121  CG2        9.9710    1.1250   25.8520 C.3    90  ILE90       0.0019
    122  CD1        9.1210    3.0950   27.8920 C.3    90  ILE90       0.0001
    123  N         11.3550   -1.9580   22.5590 N.3    92  ASN92      -0.1240
    124  CA        10.9360   -1.2840   21.3630 C.3    92  ASN92       0.1653
    125  C         11.5150   -1.8740   20.1270 C.2    92  ASN92       0.2266
    126  O         12.6410   -2.3180   20.0510 O.2    92  ASN92      -0.2867
    127  CB        11.3490    0.2390   21.5220 C.3    92  ASN92       0.1155
    128  CG        10.9560    1.0870   20.3420 C.2    92  ASN92       0.2627
    129  OD1        9.8380    1.3560   20.2320 O.2    92  ASN92      -0.2716
    130  ND2       11.8130    1.4800   19.5620 N.am   92  ASN92      -0.0877
    131  N         15.3820   -2.5310   20.8860 N.3   104  MET104     -0.1230
    132  CA        15.9060   -1.7120   21.9830 C.3   104  MET104      0.1702
    133  C         15.2400   -1.9630   23.2600 C.2   104  MET104      0.2593
    134  O         14.2220   -2.5010   23.2630 O.2   104  MET104     -0.2718
    135  CB        15.7550   -0.2050   21.6200 C.3   104  MET104      0.0401
    136  CG        16.5970    0.2980   20.6000 C.3   104  MET104      0.0596
    137  SD        15.7810    1.7010   19.8700 S.3   104  MET104     -0.1393
    138  CE        14.9020    0.8670   18.6930 C.3   104  MET104      0.0692
    139  N         15.9310   -1.5120   24.3420 N.am  105  THR105     -0.1939
    140  CA        15.4300   -1.5580   25.6820 C.3   105  THR105      0.2028
    141  C         15.7420   -0.3170   26.4460 C.2   105  THR105      0.2642
    142  O         16.6520    0.3240   26.1150 O.2   105  THR105     -0.2714
    143  CB        16.0380   -2.8500   26.4830 C.3   105  THR105      0.1808
    144  OG1       17.4000   -2.9410   26.2040 O.3   105  THR105     -0.2208
    145  CG2       15.3850   -4.1370   25.9460 C.3   105  THR105      0.0379
    146  N         15.0070    0.0520   27.3960 N.am  106  GLY106     -0.1954
    147  CA        15.2600    1.2490   28.1530 C.3   106  GLY106      0.1869
    148  C         14.7660    1.1960   29.6480 C.2   106  GLY106      0.2309
    149  O         13.7870    0.7650   29.9130 O.2   106  GLY106     -0.2863
    150  N         13.9010    3.3200   32.8840 N.3   108  LEU108     -0.1245
    151  CA        13.6040    4.6680   33.2240 C.3   108  LEU108      0.1561
    152  C         13.5170    4.7790   34.7260 C.2   108  LEU108      0.2260
    153  O         13.3660    3.7850   35.3010 O.2   108  LEU108     -0.2867
    154  CB        12.2100    5.1120   32.5190 C.3   108  LEU108      0.0270
    155  CG        12.1470    4.8640   31.0580 C.3   108  LEU108      0.0019
    156  CD1       10.8930    5.4250   30.5560 C.3   108  LEU108      0.0001
    157  CD2       13.2950    5.4500   30.3070 C.3   108  LEU108      0.0001
@<TRIPOS>BOND
     1    86    87    2
     2    86    85    1
     3    96    97    1
     4    84    85    1
     5    85    88    1
     6    80    79    2
     7    97    98    1
     8    97   100    1
     9    79    78    1
    10    99    98    2
    11   102   101    2
    12    24    22   ar
    13    24    26   ar
    14   101   103   am
    15   101   100    1
    16    88    89    1
    17    77    78    1
    18    90    89   ar
    19    90    92   ar
    20    78    81    1
    21    22    21   ar
    22    26    25   ar
    23    89    91   ar
    24    92    94   ar
    25    91    93   ar
    26    76    74    1
    27   138   137    1
    28    94    93   ar
    29    94    95    1
    30    16    17    1
    31    81    83    1
    32    81    82    1
    33    21    20    1
    34    21    23   ar
    35    25    23   ar
    36   130   128   am
    37    75    74    1
    38    20    17    1
    39   137   136    1
    40    74    73    1
    41   126   125    2
    42   125   124    1
    43    17    18    1
    44   129   128    2
    45   128   127    1
    46    73    70    1
    47   136   135    1
    48    70    71    1
    49    70    69    1
    50   104   105    1
    51   131   132    1
    52    71    72    2
    53   124   127    1
    54   124   123    1
    55    18    19    2
    56    68    66   ar
    57    68    67   ar
    58   135   132    1
    59    66    64   ar
    60   132   133    1
    61   105   108    1
    62   105   106    1
    63   110   112   ar
    64   110   109   ar
    65    67    65   ar
    66   108   109    1
    67    33    31    1
    68   107   106    2
    69   112   114   ar
    70    64    63   ar
    71   109   111   ar
    72   133   134    2
    73   133   139   am
    74    57    55    1
    75    65    63   ar
    76    27    28    1
    77    31    28    1
    78    31    32    1
    79    63    62    1
    80    55    54    1
    81    55    56    1
    82    53    52    2
    83    61    60    2
    84   139   140    1
    85   114   113   ar
    86    28    29    1
    87    54    51    1
    88   111   113   ar
    89    14    12    1
    90    60    59    1
    91    50    51    1
    92    52    51    1
    93    62    59    1
    94    15    13    1
    95   140   141    1
    96   140   143    1
    97    58    59    1
    98    29    30    2
    99   121   119    1
   100   145   143    1
   101    12    13    1
   102    12     9    1
   103   142   141    2
   104   144   143    1
   105    11    10    2
   106    10     9    1
   107   141   146   am
   108   118   117    2
   109   117   116    1
   110    41    40    1
   111     9     8    1
   112    40    39    1
   113   119   116    1
   114   119   120    1
   115   146   147    1
   116   116   115    1
   117   122   120    1
   118   147   148    1
   119    34    35    1
   120    35    38    1
   121    35    36    1
   122     6     5    1
   123    39    38    1
   124     7     5    1
   125    49    47    1
   126    48    46    1
   127    47    46    1
   128   148   149    2
   129     5     2    1
   130    36    37    2
   131    46    43    1
   132    43    44    1
   133    43    42    1
   134   157   155    1
   135   156   155    1
   136    44    45    2
   137   155   154    1
   138     2     1    1
   139     2     3    1
   140     3     4    2
   141   154   151    1
   142   150   151    1
   143   151   152    1
   144   152   153    2
