@<TRIPOS>MOLECULE
tmp/1e03B01.pdb
 97 93 0 0 0
SMALL
GASTEIGER

@<TRIPOS>ATOM
      1  N        -13.6850  -15.3530   35.1440 N.3    13  MET13      -0.1230
      2  CA       -13.4680  -13.9270   35.2430 C.3    13  MET13       0.1702
      3  C        -14.3860  -12.8990   34.6350 C.2    13  MET13       0.2592
      4  O        -14.3960  -11.7220   35.0490 O.2    13  MET13      -0.2718
      5  CB       -12.0090  -13.5920   34.9010 C.3    13  MET13       0.0401
      6  CG       -11.6070  -12.3050   34.2360 C.3    13  MET13       0.0596
      7  SD       -11.2700  -12.4910   32.4680 S.3    13  MET13      -0.1393
      8  CE        -9.9490  -13.7030   32.5190 C.3    13  MET13       0.0692
      9  N        -15.1840  -13.2410   33.6370 N.am   14  ASN14      -0.1961
     10  CA       -16.1530  -12.3960   32.9830 C.3    14  ASN14       0.1804
     11  C        -16.4030  -11.0470   33.6460 C.2    14  ASN14       0.2463
     12  O        -16.8780  -10.9580   34.7770 O.2    14  ASN14      -0.2730
     13  CB       -17.4960  -13.1070   32.8190 C.3    14  ASN14       0.1195
     14  CG       -17.7950  -14.2140   33.7860 C.2    14  ASN14       0.2630
     15  OD1      -17.3040  -14.3950   34.9000 O.2    14  ASN14      -0.2716
     16  ND2      -18.7250  -15.0870   33.3650 N.am   14  ASN14      -0.0877
     17  N        -16.1270   -9.9610   32.9170 N.am   15  PRO15      -0.2716
     18  CA       -16.2680   -8.6180   33.4090 C.3    15  PRO15       0.1536
     19  C        -17.6500   -8.1580   33.8180 C.2    15  PRO15       0.2598
     20  O        -18.6700   -8.8220   33.6590 O.2    15  PRO15      -0.2715
     21  CB       -15.7060   -7.7340   32.2990 C.3    15  PRO15       0.0310
     22  CG       -15.6950   -8.5660   31.0680 C.3    15  PRO15       0.0237
     23  CD       -15.5730   -9.9960   31.5350 C.3    15  PRO15       0.0939
     24  N        -17.7020   -6.9390   34.3690 N.am   16  MET16      -0.1978
     25  CA       -18.9150   -6.3020   34.8290 C.3    16  MET16       0.1605
     26  C        -20.0020   -6.2110   33.7640 C.2    16  MET16       0.2287
     27  O        -21.0370   -6.8700   33.8900 O.2    16  MET16      -0.2864
     28  CB       -18.6220   -4.8830   35.3570 C.3    16  MET16       0.0413
     29  CG       -19.8880   -4.1360   35.7620 C.3    16  MET16       0.0598
     30  SD       -19.6050   -2.5430   36.5440 S.3    16  MET16      -0.1393
     31  CE       -18.3630   -2.9560   37.7490 C.3    16  MET16       0.0692
     32  N        -21.6220   -6.2440   29.7360 N.3    18  ILE18      -0.1245
     33  CA       -21.5420   -7.0570   28.5200 C.3    18  ILE18       0.1561
     34  C        -22.3460   -6.3810   27.4130 C.2    18  ILE18       0.2260
     35  O        -23.3630   -5.7290   27.6300 O.2    18  ILE18      -0.2867
     36  CB       -21.9310   -8.5030   28.7780 C.3    18  ILE18       0.0252
     37  CG1      -20.7320   -9.3990   29.1550 C.3    18  ILE18       0.0019
     38  CG2      -22.7190   -9.1770   27.6710 C.3    18  ILE18       0.0019
     39  CD1      -21.0960  -10.4990   30.1340 C.3    18  ILE18       0.0001
     40  N        -11.7300   -0.6420   42.2150 N.3   147  ASN147     -0.1240
     41  CA       -12.4330   -1.9380   42.2640 C.3   147  ASN147      0.1653
     42  C        -11.4030   -3.0510   42.2810 C.2   147  ASN147      0.2266
     43  O        -10.6110   -3.2250   41.3510 O.2   147  ASN147     -0.2867
     44  CB       -13.3840   -1.9700   41.0780 C.3   147  ASN147      0.1155
     45  CG       -14.1030   -3.2780   40.8230 C.2   147  ASN147      0.2627
     46  OD1      -13.4050   -4.3040   40.7530 O.2   147  ASN147     -0.2716
     47  ND2      -15.4130   -3.2010   40.6350 N.am  147  ASN147     -0.0877
     48  N        -11.7460   -6.3300   41.8810 N.3   149  THR149     -0.1203
     49  CA       -11.8830   -7.2670   40.7620 C.3   149  THR149      0.1994
     50  C        -11.1790   -6.6400   39.5630 C.2   149  THR149      0.2617
     51  O        -10.2880   -7.2210   38.9460 O.2   149  THR149     -0.2717
     52  CB       -13.3630   -7.5230   40.4360 C.3   149  THR149      0.1784
     53  OG1      -14.0470   -7.8880   41.6490 O.3   149  THR149     -0.2211
     54  CG2      -13.4660   -8.6670   39.4400 C.3   149  THR149      0.0376
     55  N        -11.5340   -5.3830   39.2650 N.am  150  TYR150     -0.1975
     56  CA       -10.9260   -4.6230   38.1900 C.3   150  TYR150      0.1639
     57  C         -9.4050   -4.7180   38.2420 C.2   150  TYR150      0.2290
     58  O         -8.7940   -5.0540   37.2200 O.2   150  TYR150     -0.2864
     59  CB       -11.3830   -3.1670   38.1950 C.3   150  TYR150      0.0560
     60  CG       -10.6070   -2.2910   37.2290 C.ar  150  TYR150     -0.0198
     61  CD1      -10.6950   -2.4890   35.8570 C.ar  150  TYR150     -0.0009
     62  CD2       -9.7700   -1.2870   37.6990 C.ar  150  TYR150     -0.0009
     63  CE1       -9.9830   -1.6970   34.9760 C.ar  150  TYR150      0.0417
     64  CE2       -9.0520   -0.4910   36.8240 C.ar  150  TYR150      0.0417
     65  CZ        -9.1610   -0.7020   35.4630 C.ar  150  TYR150      0.1957
     66  OH        -8.4470    0.0940   34.5950 O.3   150  TYR150     -0.2866
     67  N         -8.3420   -8.5640   37.4750 N.3   153  ILE153     -0.1245
     68  CA        -8.4950   -8.9340   36.0760 C.3   153  ILE153      0.1561
     69  C         -7.4630   -8.2660   35.1860 C.2   153  ILE153      0.2260
     70  O         -6.9140   -8.8500   34.2490 O.2   153  ILE153     -0.2867
     71  CB        -9.9290   -8.6640   35.5840 C.3   153  ILE153      0.0252
     72  CG1      -10.9150   -9.3810   36.5180 C.3   153  ILE153      0.0019
     73  CG2      -10.1030   -9.1310   34.1440 C.3   153  ILE153      0.0019
     74  CD1      -12.3720   -9.2470   36.1450 C.3   153  ILE153      0.0001
     75  N        -18.3630    2.4700   34.9590 N.3   344  PRO344     -0.2102
     76  CA       -18.6720    2.1640   36.3370 C.3   344  PRO344      0.1504
     77  C        -17.8800    1.0690   37.0090 C.2   344  PRO344      0.2576
     78  O        -18.1950    0.7580   38.1750 O.2   344  PRO344     -0.2718
     79  CB       -20.1480    1.7060   36.2420 C.3   344  PRO344      0.0282
     80  CG       -20.1710    0.9480   34.9480 C.3   344  PRO344      0.0208
     81  CD       -19.2810    1.7600   34.0360 C.3   344  PRO344      0.0893
     82  N        -16.8920    0.4600   36.3590 N.am  345  GLY345     -0.1957
     83  CA       -16.1270   -0.6100   36.9410 C.3   345  GLY345      0.1869
     84  C        -14.6900   -0.3490   37.3050 C.2   345  GLY345      0.2309
     85  O        -13.9070   -1.2940   37.4950 O.2   345  GLY345     -0.2863
     86  N        -13.5800    2.4720   39.7790 N.3   347  VAL347     -0.1231
     87  CA       -13.5120    2.8240   41.1810 C.3   347  VAL347      0.1692
     88  C        -14.5870    2.1780   42.0470 C.2   347  VAL347      0.2591
     89  O        -15.7870    2.3160   41.8110 O.2   347  VAL347     -0.2718
     90  CB       -13.5340    4.3400   41.4510 C.3   347  VAL347      0.0266
     91  CG1      -12.1590    4.9600   41.2860 C.3   347  VAL347      0.0020
     92  CG2      -14.5610    5.0420   40.5780 C.3   347  VAL347      0.0020
     93  N        -14.1390    1.5100   43.1110 N.am  348  ALA348     -0.1980
     94  CA       -15.0480    0.8550   44.0520 C.3   348  ALA348      0.1597
     95  C        -16.0880    1.8350   44.5570 C.2   348  ALA348      0.2287
     96  O        -17.2940    1.7170   44.3360 O.2   348  ALA348     -0.2864
     97  CB       -14.2570    0.2880   45.2280 C.3   348  ALA348      0.0319
@<TRIPOS>BOND
     1    34    35    2
     2    34    33    1
     3    38    36    1
     4    33    36    1
     5    33    32    1
     6    36    37    1
     7    37    39    1
     8    22    23    1
     9    22    21    1
    10    23    17    1
    11    21    18    1
    12     7     8    1
    13     7     6    1
    14    13    10    1
    15    13    14    1
    16    17    18    1
    17    17    11   am
    18    10     9    1
    19    10    11    1
    20    16    14   am
    21    18    19    1
    22     9     3   am
    23    11    12    2
    24    20    19    2
    25    26    27    2
    26    26    25    1
    27    14    15    2
    28    19    24   am
    29    81    80    1
    30    81    75    1
    31    73    71    1
    32     6     5    1
    33    70    69    2
    34    24    25    1
    35    66    65    1
    36     3     4    2
    37     3     2    1
    38    25    28    1
    39     5     2    1
    40    80    79    1
    41    75    76    1
    42    63    65   ar
    43    63    61   ar
    44     1     2    1
    45    69    68    1
    46    28    29    1
    47    65    64   ar
    48    71    68    1
    49    71    72    1
    50    29    30    1
    51    61    60   ar
    52    68    67    1
    53    74    72    1
    54    79    76    1
    55    76    77    1
    56    82    83    1
    57    82    77   am
    58    30    31    1
    59    64    62   ar
    60    83    84    1
    61    77    78    2
    62    58    57    2
    63    60    62   ar
    64    60    59    1
    65    84    85    2
    66    56    59    1
    67    56    57    1
    68    56    55    1
    69    51    50    2
    70    55    50   am
    71    54    52    1
    72    50    49    1
    73    86    87    1
    74    52    49    1
    75    52    53    1
    76    92    90    1
    77    47    45   am
    78    46    45    2
    79    49    48    1
    80    45    44    1
    81    44    41    1
    82    87    90    1
    83    87    88    1
    84    91    90    1
    85    43    42    2
    86    89    88    2
    87    88    93   am
    88    40    41    1
    89    41    42    1
    90    93    94    1
    91    94    95    1
    92    94    97    1
    93    96    95    2
