@<TRIPOS>MOLECULE
tmp/1e06B00.pdb
 149 137 0 0 0
SMALL
GASTEIGER

@<TRIPOS>ATOM
      1  N         15.8740    8.7380   32.0350 N.3     8  THR8       -0.1218
      2  CA        16.5630    7.5550   31.5060 C.3     8  THR8        0.1862
      3  C         17.8060    7.2190   32.3440 C.2     8  THR8        0.2287
      4  O         18.5420    8.1340   32.7190 O.2     8  THR8       -0.2866
      5  CB        17.0750    7.8100   30.0550 C.3     8  THR8        0.1770
      6  OG1       16.0180    8.3390   29.2480 O.3     8  THR8       -0.2211
      7  CG2       17.5940    6.5320   29.4300 C.3     8  THR8        0.0375
      8  N         20.2170    2.2740   28.4810 N.3    11  ILE11      -0.1245
      9  CA        19.5740    1.9060   27.2390 C.3    11  ILE11       0.1561
     10  C         20.3970    0.8040   26.5930 C.2    11  ILE11       0.2260
     11  O         21.6230    0.8250   26.6680 O.2    11  ILE11      -0.2867
     12  CB        19.4900    3.1300   26.2610 C.3    11  ILE11       0.0252
     13  CG1       18.4730    4.1420   26.8150 C.3    11  ILE11       0.0019
     14  CG2       19.1610    2.6740   24.8360 C.3    11  ILE11       0.0019
     15  CD1       18.1250    5.3000   25.8930 C.3    11  ILE11       0.0001
     16  N         18.7760    7.4230   19.2090 N.3    25  PHE25      -0.1241
     17  CA        18.2740    6.7030   20.3670 C.3    25  PHE25       0.1605
     18  C         18.9120    6.9010   21.7340 C.2    25  PHE25       0.2264
     19  O         18.5520    6.2530   22.7170 O.2    25  PHE25      -0.2867
     20  CB        17.9460    5.2720   20.0200 C.3    25  PHE25       0.0534
     21  CG        16.7030    5.1610   19.2170 C.ar   25  PHE25      -0.0203
     22  CD1       15.4650    5.2210   19.8410 C.ar   25  PHE25      -0.0042
     23  CD2       16.7600    5.0330   17.8380 C.ar   25  PHE25      -0.0042
     24  CE1       14.3000    5.1530   19.1080 C.ar   25  PHE25      -0.0003
     25  CE2       15.6000    4.9610   17.0890 C.ar   25  PHE25      -0.0003
     26  CZ        14.3600    5.0200   17.7250 C.ar   25  PHE25      -0.0000
     27  N         18.3000    8.7230   24.1970 N.3    27  VAL27      -0.1245
     28  CA        17.1730    9.5050   24.7020 C.3    27  VAL27       0.1561
     29  C         17.2330    9.8050   26.1850 C.2    27  VAL27       0.2260
     30  O         17.3460    8.8950   26.9960 O.2    27  VAL27      -0.2867
     31  CB        15.8670    8.7300   24.4160 C.3    27  VAL27       0.0252
     32  CG1       14.6880    9.3350   25.1780 C.3    27  VAL27       0.0019
     33  CG2       15.6080    8.7410   22.9290 C.3    27  VAL27       0.0019
     34  N         14.9390   10.8640   28.7240 N.3    29  MET29      -0.1245
     35  CA        13.5400   11.0680   29.0460 C.3    29  MET29       0.1570
     36  C         13.3230   12.1400   30.1140 C.2    29  MET29       0.2261
     37  O         14.2130   12.4140   30.9160 O.2    29  MET29      -0.2867
     38  CB        12.9260    9.7440   29.4850 C.3    29  MET29       0.0387
     39  CG        11.4220    9.7160   29.4180 C.3    29  MET29       0.0595
     40  SD        10.7540    9.7940   27.7360 S.3    29  MET29      -0.1393
     41  CE        11.6080    8.5110   26.9240 C.3    29  MET29       0.0692
     42  N          5.1160   11.3710   25.1900 N.3    43  LEU43      -0.1245
     43  CA         6.4920   11.3160   25.6570 C.3    43  LEU43       0.1561
     44  C          7.1710   12.6560   25.4790 C.2    43  LEU43       0.2260
     45  O          7.0230   13.2830   24.4310 O.2    43  LEU43      -0.2867
     46  CB         7.3150   10.2930   24.8680 C.3    43  LEU43       0.0270
     47  CG         6.9560    8.8260   24.6300 C.3    43  LEU43       0.0019
     48  CD1        6.7090    8.1540   25.9650 C.3    43  LEU43       0.0001
     49  CD2        5.7490    8.6650   23.7140 C.3    43  LEU43       0.0001
     50  N         11.0860   14.3200   25.9460 N.3    45  PHE45      -0.1241
     51  CA        12.4950   13.9820   26.1640 C.3    45  PHE45       0.1605
     52  C         13.4380   14.8130   25.2920 C.2    45  PHE45       0.2264
     53  O         13.0040   15.5870   24.4350 O.2    45  PHE45      -0.2867
     54  CB        12.7560   12.4900   25.8860 C.3    45  PHE45       0.0534
     55  CG        12.4890   12.0650   24.4550 C.ar   45  PHE45      -0.0203
     56  CD1       13.4690   12.2250   23.4660 C.ar   45  PHE45      -0.0042
     57  CD2       11.2490   11.5460   24.0880 C.ar   45  PHE45      -0.0042
     58  CE1       13.2080   11.8710   22.1460 C.ar   45  PHE45      -0.0003
     59  CE2       10.9940   11.1940   22.7670 C.ar   45  PHE45      -0.0003
     60  CZ        11.9630   11.3550   21.7910 C.ar   45  PHE45      -0.0000
     61  N          6.2400   13.7160   21.7150 N.3    58  LEU58      -0.1245
     62  CA         5.6170   12.7760   20.8030 C.3    58  LEU58       0.1561
     63  C          4.2730   12.2470   21.2850 C.2    58  LEU58       0.2260
     64  O          3.9160   12.3810   22.4540 O.2    58  LEU58      -0.2867
     65  CB         6.5550   11.5930   20.5640 C.3    58  LEU58       0.0270
     66  CG         8.0170   11.7750   20.1540 C.3    58  LEU58       0.0019
     67  CD1        8.6600   10.4030   20.0280 C.3    58  LEU58       0.0001
     68  CD2        8.1970   12.5420   18.8540 C.3    58  LEU58       0.0001
     69  N          4.5880    4.6550   17.8590 N.3    70  VAL70      -0.1245
     70  CA         5.0250    6.0500   17.8600 C.3    70  VAL70       0.1561
     71  C          6.0940    6.2780   16.8050 C.2    70  VAL70       0.2260
     72  O          6.9530    5.4280   16.5700 O.2    70  VAL70      -0.2867
     73  CB         5.4850    6.5130   19.2500 C.3    70  VAL70       0.0252
     74  CG1        6.8440    5.9330   19.5900 C.3    70  VAL70       0.0019
     75  CG2        5.4790    8.0280   19.3440 C.3    70  VAL70       0.0019
     76  N          9.3280    8.2720   15.3700 N.3    72  TYR72      -0.1241
     77  CA        10.5110    8.9750   15.8470 C.3    72  TYR72       0.1605
     78  C         11.6570    8.1700   15.2770 C.2    72  TYR72       0.2264
     79  O         11.7570    6.9590   15.5270 O.2    72  TYR72      -0.2867
     80  CB        10.5860    9.0110   17.3690 C.3    72  TYR72       0.0534
     81  CG        11.8830    9.5840   17.8970 C.ar   72  TYR72      -0.0201
     82  CD1       12.1590   10.9540   17.8250 C.ar   72  TYR72      -0.0009
     83  CD2       12.8590    8.7470   18.4360 C.ar   72  TYR72      -0.0009
     84  CE1       13.3750   11.4680   18.2920 C.ar   72  TYR72       0.0417
     85  CE2       14.0660    9.2490   18.8980 C.ar   72  TYR72       0.0417
     86  CZ        14.3180   10.6060   18.8240 C.ar   72  TYR72       0.1957
     87  OH        15.5010   11.0780   19.3420 O.3    72  TYR72      -0.2866
     88  N          8.1490    2.9960   15.3730 N.3    76  ASN76      -0.1240
     89  CA         8.4460    2.2530   16.5740 C.3    76  ASN76       0.1653
     90  C          7.2420    1.5870   17.1610 C.2    76  ASN76       0.2266
     91  O          6.1430    2.1220   17.1210 O.2    76  ASN76      -0.2867
     92  CB         8.9920    3.1520   17.6610 C.3    76  ASN76       0.1155
     93  CG        10.1600    3.9770   17.2110 C.2    76  ASN76       0.2627
     94  OD1        9.9920    5.1320   16.8410 O.2    76  ASN76      -0.2716
     95  ND2       11.3480    3.4010   17.2340 N.am   76  ASN76      -0.0877
     96  N          6.4900   -0.1280   20.8440 N.3    78  PHE78      -0.1241
     97  CA         7.0460   -0.4760   22.1360 C.3    78  PHE78       0.1605
     98  C          6.0480   -0.9870   23.1530 C.2    78  PHE78       0.2264
     99  O          4.8400   -0.7860   23.0260 O.2    78  PHE78      -0.2867
    100  CB         7.8810    0.6680   22.7210 C.3    78  PHE78       0.0534
    101  CG         7.0730    1.8380   23.2240 C.ar   78  PHE78      -0.0203
    102  CD1        6.7380    2.8870   22.3770 C.ar   78  PHE78      -0.0042
    103  CD2        6.6800    1.9100   24.5600 C.ar   78  PHE78      -0.0042
    104  CE1        6.0240    3.9950   22.8530 C.ar   78  PHE78      -0.0003
    105  CE2        5.9660    3.0120   25.0450 C.ar   78  PHE78      -0.0003
    106  CZ         5.6400    4.0560   24.1870 C.ar   78  PHE78      -0.0000
    107  N         11.2930   -0.3910   29.2180 N.3    90  ILE90      -0.1245
    108  CA        10.6290   -0.3800   27.9270 C.3    90  ILE90       0.1561
    109  C         11.4010   -1.1500   26.8710 C.2    90  ILE90       0.2260
    110  O         12.6290   -1.1140   26.8350 O.2    90  ILE90      -0.2867
    111  CB        10.4300    1.1090   27.4840 C.3    90  ILE90       0.0252
    112  CG1        9.3100    1.7170   28.3260 C.3    90  ILE90       0.0019
    113  CG2       10.0980    1.2220   26.0040 C.3    90  ILE90       0.0019
    114  CD1        9.2940    3.2100   28.3040 C.3    90  ILE90       0.0001
    115  N         11.5160   -1.7120   22.8480 N.3    92  ASN92      -0.1240
    116  CA        11.1180   -1.0340   21.6210 C.3    92  ASN92       0.1653
    117  C         11.6750   -1.6510   20.3460 C.2    92  ASN92       0.2266
    118  O         12.8400   -2.0600   20.3070 O.2    92  ASN92      -0.2867
    119  CB        11.5680    0.4390   21.6790 C.3    92  ASN92       0.1155
    120  CG        11.1370    1.2310   20.4570 C.2    92  ASN92       0.2627
    121  OD1        9.9580    1.2590   20.1220 O.2    92  ASN92      -0.2716
    122  ND2       12.0890    1.8550   19.7750 N.am   92  ASN92      -0.0877
    123  N         15.5770   -2.4070   21.0460 N.3   104  MET104     -0.1230
    124  CA        16.1710   -1.6510   22.1550 C.3   104  MET104      0.1702
    125  C         15.4520   -1.8210   23.4880 C.2   104  MET104      0.2593
    126  O         14.3230   -2.2960   23.5560 O.2   104  MET104     -0.2718
    127  CB        16.1650   -0.1540   21.8310 C.3   104  MET104      0.0401
    128  CG        16.9330    0.2480   20.6090 C.3   104  MET104      0.0596
    129  SD        16.3890    1.8270   19.9600 S.3   104  MET104     -0.1393
    130  CE        15.1030    1.2910   18.9510 C.3   104  MET104      0.0692
    131  N         16.1100   -1.3970   24.5610 N.am  105  THR105     -0.1939
    132  CA        15.5230   -1.4740   25.8860 C.3   105  THR105      0.2028
    133  C         15.9420   -0.2500   26.6810 C.2   105  THR105      0.2642
    134  O         17.0290    0.2790   26.4920 O.2   105  THR105     -0.2714
    135  CB        16.0130   -2.7300   26.6790 C.3   105  THR105      0.1808
    136  OG1       17.4270   -2.8680   26.5180 O.3   105  THR105     -0.2208
    137  CG2       15.3050   -3.9930   26.2400 C.3   105  THR105      0.0379
    138  N         15.0620    0.2190   27.5570 N.am  106  GLY106     -0.1954
    139  CA        15.4080    1.3700   28.3700 C.3   106  GLY106      0.1869
    140  C         14.9310    1.1780   29.7930 C.2   106  GLY106      0.2309
    141  O         13.9160    0.5300   30.0160 O.2   106  GLY106     -0.2863
    142  N         13.9740    3.4110   33.0690 N.3   108  LEU108     -0.1245
    143  CA        13.7190    4.7990   33.4340 C.3   108  LEU108      0.1561
    144  C         13.5320    4.8160   34.9490 C.2   108  LEU108      0.2260
    145  O         13.1300    3.8160   35.5360 O.2   108  LEU108     -0.2867
    146  CB        12.4510    5.2990   32.7210 C.3   108  LEU108      0.0270
    147  CG        12.3550    5.0570   31.2110 C.3   108  LEU108      0.0019
    148  CD1       11.1210    5.6840   30.6540 C.3   108  LEU108      0.0001
    149  CD2       13.5680    5.6160   30.4930 C.3   108  LEU108      0.0001
@<TRIPOS>BOND
     1    78    79    2
     2    78    77    1
     3    76    77    1
     4    88    89    1
     5    77    80    1
     6    72    71    2
     7    89    90    1
     8    89    92    1
     9    71    70    1
    10    94    93    2
    11    25    26   ar
    12    25    23   ar
    13    91    90    2
    14    93    95   am
    15    93    92    1
    16    80    81    1
    17    26    24   ar
    18    82    81   ar
    19    82    84   ar
    20    23    21   ar
    21    69    70    1
    22    70    73    1
    23    81    83   ar
    24    84    86   ar
    25    83    85   ar
    26    86    85   ar
    27    86    87    1
    28    68    66    1
    29   130   129    1
    30    24    22   ar
    31    16    17    1
    32    21    22   ar
    33    21    20    1
    34    73    75    1
    35    73    74    1
    36   122   120   am
    37   129   128    1
    38    20    17    1
    39    67    66    1
    40   121   120    2
    41    66    65    1
    42   118   117    2
    43   117   116    1
    44    17    18    1
    45   120   119    1
    46    65    62    1
    47   128   127    1
    48    62    63    1
    49    62    61    1
    50    96    97    1
    51   123   124    1
    52    63    64    2
    53   116   119    1
    54   116   115    1
    55    18    19    2
    56    60    58   ar
    57    60    59   ar
    58   127   124    1
    59    97   100    1
    60    97    98    1
    61    58    56   ar
    62   124   125    1
    63   102   104   ar
    64   102   101   ar
    65   100   101    1
    66    59    57   ar
    67   104   106   ar
    68    33    31    1
    69    99    98    2
    70   101   103   ar
    71    56    55   ar
    72   125   126    2
    73   125   131   am
    74    49    47    1
    75    57    55   ar
    76   106   105   ar
    77    27    28    1
    78    31    28    1
    79    31    32    1
    80    45    44    2
    81    53    52    2
    82    55    54    1
    83   103   105   ar
    84   131   132    1
    85    47    46    1
    86    47    48    1
    87    28    29    1
    88    14    12    1
    89    46    43    1
    90    42    43    1
    91    52    51    1
    92    44    43    1
    93   132   135    1
    94   132   133    1
    95    54    51    1
    96    15    13    1
    97    50    51    1
    98   113   111    1
    99    29    30    2
   100   137   135    1
   101    12    13    1
   102    12     9    1
   103   134   133    2
   104   136   135    1
   105    10    11    2
   106    10     9    1
   107   133   138   am
   108   110   109    2
   109   109   108    1
   110    41    40    1
   111     9     8    1
   112   111   108    1
   113   111   112    1
   114   138   139    1
   115    40    39    1
   116   108   107    1
   117   114   112    1
   118   139   140    1
   119    34    35    1
   120    35    38    1
   121    35    36    1
   122     6     5    1
   123    39    38    1
   124     7     5    1
   125   140   141    2
   126     5     2    1
   127    36    37    2
   128   149   147    1
   129   148   147    1
   130   147   146    1
   131     2     1    1
   132     2     3    1
   133     3     4    2
   134   146   143    1
   135   142   143    1
   136   143   144    1
   137   144   145    2
