@<TRIPOS>MOLECULE
tmp/1e0aA00.pdb
 204 195 0 0 0
SMALL
GASTEIGER

@<TRIPOS>ATOM
      1  N          1.6120   -3.5680   -8.2640 N.3    11  ASP11      -0.1225
      2  CA         1.3320   -4.9780   -8.0180 C.3    11  ASP11       0.1805
      3  C          2.5240   -5.6610   -7.3540 C.2    11  ASP11       0.2598
      4  O          3.5440   -5.0270   -7.0850 O.2    11  ASP11      -0.2718
      5  CB         0.9840   -5.6880   -9.3270 C.3    11  ASP11       0.1424
      6  CG        -0.2930   -6.4980   -9.2230 C.2    11  ASP11       0.3668
      7  OD1       -0.2480   -7.6060   -8.6490 O.co2  11  ASP11      -0.2456
      8  OD2       -1.3380   -6.0240   -9.7160 O.co2  11  ASP11      -0.2456
      9  N          2.3860   -6.9560   -7.0900 N.am   12  GLY12      -0.1942
     10  CA         3.4590   -7.7010   -6.4580 C.3    12  GLY12       0.2014
     11  C          3.9790   -7.0170   -5.2100 C.2    12  GLY12       0.2639
     12  O          5.0370   -6.3880   -5.2350 O.2    12  GLY12      -0.2714
     13  N          3.2330   -7.1360   -4.1160 N.am   13  ALA13      -0.1963
     14  CA         3.6270   -6.5180   -2.8570 C.3    13  ALA13       0.1728
     15  C          3.9010   -5.0320   -3.0430 C.2    13  ALA13       0.2616
     16  O          5.0460   -4.6190   -3.2270 O.2    13  ALA13      -0.2715
     17  CB         4.8540   -7.2150   -2.2870 C.3    13  ALA13       0.0334
     18  N          2.8400   -4.2340   -2.9910 N.am   14  VAL14      -0.1977
     19  CA         2.9560   -2.7870   -3.1470 C.3    14  VAL14       0.1596
     20  C          2.6990   -2.0640   -1.8250 C.2    14  VAL14       0.2287
     21  O          2.6700   -0.8380   -1.7770 O.2    14  VAL14      -0.2864
     22  CB         1.9940   -2.2260   -4.2220 C.3    14  VAL14       0.0276
     23  CG1        2.7680   -1.8400   -5.4710 C.3    14  VAL14       0.0022
     24  CG2        0.8870   -3.2200   -4.5610 C.3    14  VAL14       0.0022
     25  N         -0.0590   -2.2990   -0.1600 N.3    16  LYS16      -0.1231
     26  CA        -1.5060   -2.2530    0.0300 C.3    16  LYS16       0.1693
     27  C         -1.9930   -3.4060    0.9060 C.2    16  LYS16       0.2593
     28  O         -2.3530   -3.2070    2.0660 O.2    16  LYS16      -0.2718
     29  CB        -2.2430   -2.2920   -1.3150 C.3    16  LYS16       0.0285
     30  CG        -1.5140   -3.0480   -2.4160 C.3    16  LYS16       0.0035
     31  CD        -2.4780   -3.8530   -3.2700 C.3    16  LYS16       0.0206
     32  CE        -2.5600   -3.3050   -4.6860 C.3    16  LYS16       0.1093
     33  NZ        -3.7970   -3.7510   -5.3840 N.3    16  LYS16      -0.1314
     34  N         -2.0190   -4.6070    0.3380 N.am   17  THR17      -0.1939
     35  CA        -2.4820   -5.7880    1.0610 C.3    17  THR17       0.2028
     36  C         -1.3300   -6.5930    1.6660 C.2    17  THR17       0.2642
     37  O         -1.5240   -7.3120    2.6440 O.2    17  THR17      -0.2714
     38  CB        -3.3050   -6.6900    0.1340 C.3    17  THR17       0.1808
     39  OG1       -3.6480   -6.0130   -1.0640 O.3    17  THR17      -0.2208
     40  CG2       -4.5900   -7.1800    0.7660 C.3    17  THR17       0.0379
     41  N         -0.1400   -6.4930    1.0780 N.am   18  CYS18      -0.1953
     42  CA         1.0080   -7.2470    1.5780 C.3    18  CYS18       0.1843
     43  C          1.4210   -6.7870    2.9770 C.2    18  CYS18       0.2625
     44  O          1.6320   -7.6080    3.8720 O.2    18  CYS18      -0.2714
     45  CB         2.1880   -7.1530    0.5950 C.3    18  CYS18       0.0997
     46  SG         3.2300   -5.6820    0.7720 S.3    18  CYS18      -0.0797
     47  N          1.5430   -5.4770    3.1590 N.am   19  LEU19      -0.1977
     48  CA         1.9420   -4.9250    4.4480 C.3    19  LEU19       0.1596
     49  C          0.9390   -5.2820    5.5390 C.2    19  LEU19       0.2287
     50  O          1.2130   -6.1230    6.3920 O.2    19  LEU19      -0.2864
     51  CB         2.0890   -3.4060    4.3590 C.3    19  LEU19       0.0297
     52  CG         3.4840   -2.9090    3.9760 C.3    19  LEU19       0.0022
     53  CD1        3.3970   -1.5610    3.2780 C.3    19  LEU19       0.0001
     54  CD2        4.3720   -2.8170    5.2070 C.3    19  LEU19       0.0001
     55  N         -1.3500   -7.2030    5.8050 N.3    21  ILE21      -0.1231
     56  CA        -1.4470   -8.6440    5.9740 C.3    21  ILE21       0.1692
     57  C         -0.4790   -9.1310    7.0550 C.2    21  ILE21       0.2593
     58  O         -0.9020   -9.5640    8.1250 O.2    21  ILE21      -0.2718
     59  CB        -1.1970   -9.3640    4.6110 C.3    21  ILE21       0.0266
     60  CG1       -2.5270   -9.5850    3.8750 C.3    21  ILE21       0.0019
     61  CG2       -0.4610  -10.6960    4.7730 C.3    21  ILE21       0.0020
     62  CD1       -3.5150   -8.4390    4.0130 C.3    21  ILE21       0.0001
     63  N          0.8130   -9.0630    6.7660 N.am   22  SER22      -0.1938
     64  CA         1.8250   -9.5040    7.7170 C.3    22  SER22       0.2055
     65  C          2.3350   -8.3450    8.5690 C.2    22  SER22       0.2643
     66  O          2.3120   -8.4010    9.7990 O.2    22  SER22      -0.2714
     67  CB         2.9920  -10.1500    6.9760 C.3    22  SER22       0.2130
     68  OG         3.6670  -11.0830    7.8030 O.3    22  SER22      -0.2179
     69  N          2.8120   -7.3060    7.8980 N.am   23  TYR23      -0.1973
     70  CA         3.3570   -6.1280    8.5630 C.3    23  TYR23       0.1639
     71  C          2.3960   -5.5480    9.6130 C.2    23  TYR23       0.2290
     72  O          2.8250   -4.7960   10.4880 O.2    23  TYR23      -0.2864
     73  CB         3.7460   -5.0760    7.5030 C.3    23  TYR23       0.0560
     74  CG         3.6460   -3.6340    7.9560 C.ar   23  TYR23      -0.0198
     75  CD1        2.4480   -2.9150    7.8100 C.ar   23  TYR23      -0.0009
     76  CD2        4.7490   -2.9820    8.5280 C.ar   23  TYR23      -0.0009
     77  CE1        2.3530   -1.5840    8.2230 C.ar   23  TYR23       0.0417
     78  CE2        4.6630   -1.6530    8.9430 C.ar   23  TYR23       0.0417
     79  CZ         3.4640   -0.9570    8.7880 C.ar   23  TYR23       0.1957
     80  OH         3.3750    0.3540    9.1940 O.3    23  TYR23      -0.2866
     81  N         -2.2760  -13.8180    6.8740 N.3    28  PHE28      -0.1228
     82  CA        -2.1130  -13.7150    5.4270 C.3    28  PHE28       0.1721
     83  C         -3.4730  -13.5850    4.7390 C.2    28  PHE28       0.2437
     84  O         -4.5110  -13.8130    5.3590 O.2    28  PHE28      -0.2733
     85  CB        -1.3620  -14.9380    4.8940 C.3    28  PHE28       0.0547
     86  CG         0.0550  -14.6450    4.4810 C.ar   28  PHE28      -0.0202
     87  CD1        0.9620  -14.0700    5.3850 C.ar   28  PHE28      -0.0042
     88  CD2        0.4940  -14.9430    3.1820 C.ar   28  PHE28      -0.0042
     89  CE1        2.2780  -13.7990    5.0010 C.ar   28  PHE28      -0.0003
     90  CE2        1.8100  -14.6740    2.7930 C.ar   28  PHE28      -0.0003
     91  CZ         2.7020  -14.1010    3.7040 C.ar   28  PHE28      -0.0000
     92  N         -3.4860  -13.2150    3.4460 N.am   29  PRO29      -0.2729
     93  CA        -4.7220  -13.0510    2.6750 C.3    29  PRO29       0.1401
     94  C         -5.6990  -14.2050    2.8770 C.2    29  PRO29       0.2269
     95  O         -5.3320  -15.2610    3.3910 O.2    29  PRO29      -0.2865
     96  CB        -4.2420  -13.0020    1.2130 C.3    29  PRO29       0.0296
     97  CG        -2.7780  -13.3070    1.2530 C.3    29  PRO29       0.0237
     98  CD        -2.3090  -12.9260    2.6250 C.3    29  PRO29       0.0939
     99  N         -8.5670  -15.1000   -2.5580 N.3    32  TYR32      -0.1227
    100  CA        -7.7100  -14.6770   -3.6580 C.3    32  TYR32       0.1736
    101  C         -8.5190  -13.9850   -4.7470 C.2    32  TYR32       0.2595
    102  O         -9.2880  -14.6220   -5.4670 O.2    32  TYR32      -0.2718
    103  CB        -6.9600  -15.8720   -4.2500 C.3    32  TYR32       0.0548
    104  CG        -6.1220  -15.5220   -5.4630 C.ar   32  TYR32      -0.0200
    105  CD1       -5.6940  -14.2010   -5.6910 C.ar   32  TYR32      -0.0009
    106  CD2       -5.7520  -16.5090   -6.3930 C.ar   32  TYR32      -0.0009
    107  CE1       -4.9220  -13.8750   -6.8090 C.ar   32  TYR32       0.0417
    108  CE2       -4.9790  -16.1910   -7.5130 C.ar   32  TYR32       0.0417
    109  CZ        -4.5670  -14.8740   -7.7170 C.ar   32  TYR32       0.1957
    110  OH        -3.8060  -14.5580   -8.8180 O.3    32  TYR32      -0.2866
    111  N         -8.3340  -12.6760   -4.8630 N.am   33  VAL33      -0.1980
    112  CA        -9.0360  -11.8850   -5.8640 C.3    33  VAL33       0.1595
    113  C         -8.2750  -10.5980   -6.1560 C.2    33  VAL33       0.2287
    114  O         -7.7760   -9.9460   -5.2390 O.2    33  VAL33      -0.2864
    115  CB       -10.4630  -11.5280   -5.4030 C.3    33  VAL33       0.0276
    116  CG1      -11.1770  -10.6930   -6.4570 C.3    33  VAL33       0.0022
    117  CG2      -11.2530  -12.7890   -5.0830 C.3    33  VAL33       0.0022
    118  N         -7.0060   -7.6310   -5.8740 N.3    35  THR35      -0.1218
    119  CA        -7.2350   -6.5620   -4.9080 C.3    35  THR35       0.1862
    120  C         -7.4090   -5.2130   -5.5950 C.2    35  THR35       0.2287
    121  O         -6.4480   -4.4600   -5.7570 O.2    35  THR35      -0.2866
    122  CB        -6.0830   -6.4770   -3.9050 C.3    35  THR35       0.1770
    123  OG1       -5.8770   -7.7200   -3.2580 O.3    35  THR35      -0.2211
    124  CG2       -6.3140   -5.4350   -2.8320 C.3    35  THR35       0.0375
    125  N          5.1300   -0.5640   -2.3320 N.3    81  CYS81      -0.1235
    126  CA         6.0960   -1.6040   -1.9910 C.3    81  CYS81       0.1677
    127  C          6.6040   -2.3090   -3.2460 C.2    81  CYS81       0.2270
    128  O          5.9570   -2.2760   -4.2930 O.2    81  CYS81      -0.2867
    129  CB         5.4690   -2.6210   -1.0310 C.3    81  CYS81       0.0956
    130  SG         6.6700   -3.6930   -0.2070 S.3    81  CYS81      -0.0801
    131  N          8.5010    0.8780   -0.3600 N.3   113  VAL113     -0.1245
    132  CA         8.7810   -0.2300    0.5450 C.3   113  VAL113      0.1561
    133  C          9.4100   -1.4040   -0.1970 C.2   113  VAL113      0.2260
    134  O          9.0360   -1.7090   -1.3290 O.2   113  VAL113     -0.2867
    135  CB         7.5060   -0.7120    1.2600 C.3   113  VAL113      0.0252
    136  CG1        7.8350   -1.8250    2.2430 C.3   113  VAL113      0.0019
    137  CG2        6.8200    0.4470    1.9680 C.3   113  VAL113      0.0019
    138  N         10.5860   -5.3610    0.8180 N.3   115  THR115     -0.1203
    139  CA        10.7960   -6.4730    1.7390 C.3   115  THR115      0.1994
    140  C         10.6550   -7.8130    1.0250 C.2   115  THR115      0.2617
    141  O          9.7510   -8.0050    0.2110 O.2   115  THR115     -0.2717
    142  CB         9.8030   -6.3950    2.8980 C.3   115  THR115      0.1784
    143  OG1        8.4750   -6.5310    2.4280 O.3   115  THR115     -0.2211
    144  CG2        9.8860   -5.0960    3.6710 C.3   115  THR115      0.0376
    145  N         11.5570   -8.7370    1.3390 N.am  116  GLN116     -0.1979
    146  CA        11.5420  -10.0640    0.7360 C.3   116  GLN116      0.1601
    147  C         12.7260  -10.8890    1.2300 C.2   116  GLN116      0.2287
    148  O         13.6720  -11.1500    0.4870 O.2   116  GLN116     -0.2864
    149  CB        11.5680   -9.9580   -0.7900 C.3   116  GLN116      0.0394
    150  CG        10.3060  -10.4830   -1.4550 C.3   116  GLN116      0.0908
    151  CD        10.3750  -10.4240   -2.9680 C.2   116  GLN116      0.2608
    152  OE1        9.4470   -9.9510   -3.6240 O.2   116  GLN116     -0.2717
    153  NE2       11.4760  -10.9080   -3.5310 N.am  116  GLN116     -0.0878
    154  N         11.1950  -14.8250    0.6700 N.3   119  LEU119     -0.1245
    155  CA        10.9880  -15.1730   -0.7310 C.3   119  LEU119      0.1561
    156  C         12.3050  -15.5500   -1.4020 C.2   119  LEU119      0.2260
    157  O         12.3260  -16.3290   -2.3550 O.2   119  LEU119     -0.2867
    158  CB        10.3390  -14.0050   -1.4760 C.3   119  LEU119      0.0270
    159  CG         9.8590  -14.3280   -2.8920 C.3   119  LEU119      0.0019
    160  CD1        8.5140  -13.6730   -3.1630 C.3   119  LEU119      0.0001
    161  CD2       10.8900  -13.8810   -3.9170 C.3   119  LEU119      0.0001
    162  N         11.5230   -1.4660    7.0150 N.3   156  GLU156     -0.1231
    163  CA        10.7620   -2.6510    7.3990 C.3   156  GLU156      0.1699
    164  C         11.3090   -3.9050    6.7240 C.2   156  GLU156      0.2592
    165  O         12.0940   -3.8250    5.7790 O.2   156  GLU156     -0.2718
    166  CB         9.2870   -2.4710    7.0380 C.3   156  GLU156      0.0402
    167  CG         9.0630   -2.0170    5.6040 C.3   156  GLU156      0.1161
    168  CD         7.9300   -1.0190    5.4790 C.2   156  GLU156      0.3649
    169  OE1        6.9410   -1.1440    6.2320 O.co2 156  GLU156     -0.2457
    170  OE2        8.0300   -0.1110    4.6270 O.co2 156  GLU156     -0.2457
    171  N         10.8780   -5.0620    7.2140 N.am  157  CYS157     -0.1956
    172  CA        11.3060   -6.3410    6.6640 C.3   157  CYS157      0.1843
    173  C         10.1260   -7.0580    6.0180 C.2   157  CYS157      0.2626
    174  O          9.0390   -6.4920    5.8980 O.2   157  CYS157     -0.2714
    175  CB        11.9220   -7.2150    7.7570 C.3   157  CYS157      0.0997
    176  SG        10.7270   -7.8610    8.9510 S.3   157  CYS157     -0.0797
    177  N         10.3390   -8.2990    5.5990 N.am  158  SER158     -0.1936
    178  CA         9.2810   -9.0740    4.9620 C.3   158  SER158      0.2055
    179  C          8.4460   -9.8170    6.0000 C.2   158  SER158      0.2642
    180  O          8.8280   -9.9150    7.1660 O.2   158  SER158     -0.2714
    181  CB         9.8750  -10.0690    3.9650 C.3   158  SER158      0.2130
    182  OG         8.8740  -10.5910    3.1080 O.3   158  SER158     -0.2179
    183  N          7.3000  -10.3310    5.5650 N.am  159  ALA159     -0.1977
    184  CA         6.3990  -11.0590    6.4490 C.3   159  ALA159      0.1597
    185  C          7.1300  -12.1690    7.1980 C.2   159  ALA159      0.2287
    186  O          8.3510  -12.2920    7.1050 O.2   159  ALA159     -0.2864
    187  CB         5.2370  -11.6330    5.6530 C.3   159  ALA159      0.0319
    188  N         10.0800  -10.3170   11.8300 N.3   162  GLN162     -0.1245
    189  CA         9.8720   -8.9180   12.1870 C.3   162  GLN162      0.1566
    190  C         11.1520   -8.3030   12.7450 C.2   162  GLN162      0.2260
    191  O         11.7130   -8.7950   13.7240 O.2   162  GLN162     -0.2867
    192  CB         8.7440   -8.7950   13.2130 C.3   162  GLN162      0.0367
    193  CG         7.6330   -7.8510   12.7860 C.3   162  GLN162      0.0905
    194  CD         6.5730   -8.5400   11.9490 C.2   162  GLN162      0.2608
    195  OE1        5.8000   -9.3550   12.4530 O.2   162  GLN162     -0.2717
    196  NE2        6.5320   -8.2160   10.6620 N.am  162  GLN162     -0.0878
    197  N          8.8350   -2.8930   12.4960 N.3   165  LEU165     -0.1245
    198  CA         7.8340   -2.2160   11.6800 C.3   165  LEU165      0.1561
    199  C          7.2970   -0.9760   12.3890 C.2   165  LEU165      0.2260
    200  O          6.8210   -0.0400   11.7470 O.2   165  LEU165     -0.2867
    201  CB         6.6820   -3.1700   11.3540 C.3   165  LEU165      0.0270
    202  CG         7.0910   -4.6210   11.0900 C.3   165  LEU165      0.0019
    203  CD1        5.9350   -5.4000   10.4820 C.3   165  LEU165      0.0001
    204  CD2        8.3080   -4.6760   10.1780 C.3   165  LEU165      0.0001
@<TRIPOS>BOND
     1     8     6   ar
     2     5     6    1
     3     5     2    1
     4     6     7   ar
     5   110   109    1
     6     1     2    1
     7     2     3    1
     8   109   108   ar
     9   109   107   ar
    10   108   106   ar
    11     3     9   am
    12     3     4    2
    13     9    10    1
    14   107   105   ar
    15    10    11    1
    16   116   115    1
    17   106   104   ar
    18   113   112    1
    19   113   114    2
    20   118   119    1
    21   112   115    1
    22   112   111    1
    23   121   120    2
    24   105   104   ar
    25   120   119    1
    26    23    22    1
    27   102   101    2
    28   104   103    1
    29   115   117    1
    30    33    32    1
    31    12    11    2
    32    11    13   am
    33   119   122    1
    34   111   101   am
    35   101   100    1
    36    32    31    1
    37    24    22    1
    38   128   127    2
    39   103   100    1
    40    22    19    1
    41    13    14    1
    42   161   159    1
    43   122   123    1
    44   122   124    1
    45   100    99    1
    46   152   151    2
    47   153   151   am
    48    31    30    1
    49   127   126    1
    50    16    15    2
    51   160   159    1
    52    19    18    1
    53    19    20    1
    54    15    18   am
    55    15    14    1
    56   151   150    1
    57   159   158    1
    58    14    17    1
    59    30    29    1
    60   157   156    2
    61   125   126    1
    62   126   129    1
    63    20    21    2
    64   158   155    1
    65   150   149    1
    66   156   155    1
    67   134   133    2
    68    29    26    1
    69    39    38    1
    70   129   130    1
    71   149   146    1
    72   155   154    1
    73   131   132    1
    74   133   132    1
    75    25    26    1
    76    26    27    1
    77    38    40    1
    78    38    35    1
    79   141   140    2
    80    34    27   am
    81    34    35    1
    82   148   147    2
    83   132   135    1
    84    45    46    1
    85    45    42    1
    86   146   147    1
    87   146   145    1
    88   138   139    1
    89    27    28    2
    90   140   145   am
    91   140   139    1
    92    35    36    1
    93    41    42    1
    94    41    36   am
    95    96    97    1
    96    96    93    1
    97    97    98    1
    98   135   137    1
    99   135   136    1
   100    42    43    1
   101    36    37    2
   102   139   142    1
   103   143   142    1
   104    98    92    1
   105    93    94    1
   106    93    92    1
   107    90    88   ar
   108    90    91   ar
   109    94    95    2
   110   142   144    1
   111    43    47   am
   112    43    44    2
   113   182   181    1
   114    47    48    1
   115    88    86   ar
   116    53    52    1
   117    92    83   am
   118    91    89   ar
   119    60    62    1
   120    60    59    1
   121   181   178    1
   122    52    51    1
   123    52    54    1
   124    51    48    1
   125    48    49    1
   126    86    85    1
   127    86    87   ar
   128    59    61    1
   129    59    56    1
   130   170   168   ar
   131    83    84    2
   132    83    82    1
   133    85    82    1
   134   178   177    1
   135   178   179    1
   136    89    87   ar
   137    82    81    1
   138   168   167    1
   139   168   169   ar
   140    49    50    2
   141   183   179   am
   142   183   184    1
   143   177   173   am
   144   167   166    1
   145   187   184    1
   146   165   164    2
   147    55    56    1
   148   174   173    2
   149    56    57    1
   150   179   180    2
   151   173   172    1
   152   184   185    1
   153   172   171    1
   154   172   175    1
   155   164   171   am
   156   164   163    1
   157    63    57   am
   158    63    64    1
   159    67    64    1
   160    67    68    1
   161   162   163    1
   162   166   163    1
   163    57    58    2
   164   186   185    2
   165    73    74    1
   166    73    70    1
   167    64    65    1
   168   175   176    1
   169    75    74   ar
   170    75    77   ar
   171    69    70    1
   172    69    65   am
   173    74    76   ar
   174    77    79   ar
   175    76    78   ar
   176    70    71    1
   177    65    66    2
   178    79    78   ar
   179    79    80    1
   180    71    72    2
   181   204   202    1
   182   203   202    1
   183   196   194   am
   184   202   201    1
   185   201   198    1
   186   198   199    1
   187   198   197    1
   188   200   199    2
   189   188   189    1
   190   194   195    2
   191   194   193    1
   192   189   190    1
   193   189   192    1
   194   190   191    2
   195   193   192    1
