@<TRIPOS>MOLECULE
tmp/1e0jB01.pdb
 185 176 0 0 0
SMALL
GASTEIGER

@<TRIPOS>ATOM
      1  N         80.2500   79.0710  163.0500 N.3    53  SER53      -0.1202
      2  CA        80.1760   77.9560  163.9890 C.3    53  SER53       0.2020
      3  C         81.1170   78.0840  165.1690 C.2    53  SER53       0.2619
      4  O         82.3030   78.3530  165.0060 O.2    53  SER53      -0.2717
      5  CB        80.4320   76.6300  163.2820 C.3    53  SER53       0.2103
      6  OG        79.8190   75.5790  164.0140 O.3    53  SER53      -0.2182
      7  N         80.5580   77.8700  166.3580 N.am   54  GLY54      -0.1942
      8  CA        81.3090   77.9740  167.5880 C.3    54  GLY54       0.2014
      9  C         81.9080   79.3570  167.7530 C.2    54  GLY54       0.2639
     10  O         83.0080   79.5010  168.2620 O.2    54  GLY54      -0.2714
     11  N         81.1950   80.3900  167.3350 N.am   55  MET55      -0.1963
     12  CA        81.7350   81.7300  167.4620 C.3    55  MET55       0.1736
     13  C         81.1520   82.5590  168.6080 C.2    55  MET55       0.2617
     14  O         81.6690   83.6340  168.9250 O.2    55  MET55      -0.2715
     15  CB        81.5760   82.4640  166.1330 C.3    55  MET55       0.0427
     16  CG        82.7950   82.3790  165.2360 C.3    55  MET55       0.0599
     17  SD        82.3290   82.5410  163.5200 S.3    55  MET55      -0.1393
     18  CE        82.1310   84.3340  163.3250 C.3    55  MET55       0.0692
     19  N         80.0850   82.0750  169.2330 N.am   56  GLY56      -0.1940
     20  CA        79.5230   82.8320  170.3330 C.3    56  GLY56       0.2014
     21  C         78.0150   82.9560  170.4240 C.2    56  GLY56       0.2639
     22  O         77.4970   83.5090  171.3980 O.2    56  GLY56      -0.2714
     23  N         77.2990   82.4480  169.4320 N.am   57  LYS57      -0.1963
     24  CA        75.8440   82.5330  169.4490 C.3    57  LYS57       0.1728
     25  C         75.2590   82.1380  170.8100 C.2    57  LYS57       0.2617
     26  O         74.7240   82.9610  171.5500 O.2    57  LYS57      -0.2715
     27  CB        75.2340   81.6260  168.3760 C.3    57  LYS57       0.0311
     28  CG        75.7200   81.8740  166.9650 C.3    57  LYS57       0.0038
     29  CD        75.0850   80.8900  165.9970 C.3    57  LYS57       0.0206
     30  CE        75.5180   79.4540  166.2680 C.3    57  LYS57       0.1093
     31  NZ        76.6810   79.0560  165.4290 N.3    57  LYS57      -0.1314
     32  N         75.3690   80.8610  171.1370 N.am   58  SER58      -0.1936
     33  CA        74.8180   80.3500  172.3840 C.3    58  SER58       0.2055
     34  C         75.2180   81.1700  173.6070 C.2    58  SER58       0.2643
     35  O         74.3990   81.4520  174.4860 O.2    58  SER58      -0.2714
     36  CB        75.2220   78.8840  172.5530 C.3    58  SER58       0.2130
     37  OG        74.7940   78.1330  171.4260 O.3    58  SER58      -0.2179
     38  N         76.4760   81.5700  173.6630 N.am   59  THR59      -0.1950
     39  CA        76.9070   82.3530  174.7890 C.3    59  THR59       0.1897
     40  C         76.2140   83.6970  174.7990 C.2    59  THR59       0.2313
     41  O         75.7190   84.1080  175.8340 O.2    59  THR59      -0.2863
     42  CB        78.4150   82.5500  174.7750 C.3    59  THR59       0.1794
     43  OG1       79.0650   81.2850  175.0260 O.3    59  THR59      -0.2208
     44  CG2       78.8220   83.6140  175.8300 C.3    59  THR59       0.0378
     45  N         72.7100   83.1470  175.9310 N.3    62  ARG62      -0.1245
     46  CA        72.6740   82.7400  177.3280 C.3    62  ARG62       0.1563
     47  C         72.9630   83.9220  178.2770 C.2    62  ARG62       0.2260
     48  O         72.5140   83.9270  179.4160 O.2    62  ARG62      -0.2867
     49  CB        73.6850   81.6140  177.5250 C.3    62  ARG62       0.0307
     50  CG        73.5000   80.7980  178.7600 C.3    62  ARG62       0.0489
     51  CD        74.4930   79.6630  178.7460 C.3    62  ARG62       0.2205
     52  NE        74.2670   78.7850  177.6060 N.pl3  62  ARG62      -0.0865
     53  CZ        75.2280   78.3470  176.8010 C.cat  62  ARG62       0.5346
     54  NH1       76.4810   78.7150  177.0090 N.pl3  62  ARG62       0.1354
     55  NH2       74.9360   77.5450  175.7850 N.pl3  62  ARG62       0.1354
     56  N         70.7410   71.4630  172.2010 N.3    82  GLU82      -0.1245
     57  CA        72.0190   70.7860  171.9820 C.3    82  GLU82       0.1567
     58  C         72.8220   70.6280  173.2630 C.2    82  GLU82       0.2260
     59  O         74.0230   70.3640  173.2020 O.2    82  GLU82      -0.2867
     60  CB        72.8820   71.5370  170.9580 C.3    82  GLU82       0.0388
     61  CG        72.5620   71.2340  169.5060 C.3    82  GLU82       0.1160
     62  CD        73.5030   71.9340  168.5220 C.2    82  GLU82       0.3649
     63  OE1       74.3190   72.7840  168.9450 O.co2  82  GLU82      -0.2457
     64  OE2       73.4200   71.6310  167.3120 O.co2  82  GLU82      -0.2457
     65  N         84.4180   80.7220  184.6120 N.3   100  ARG100     -0.1245
     66  CA        84.1590   79.7320  183.5850 C.3   100  ARG100      0.1563
     67  C         84.1630   78.3780  184.2590 C.2   100  ARG100      0.2260
     68  O         85.0610   77.5710  184.0550 O.2   100  ARG100     -0.2867
     69  CB        85.2300   79.7990  182.5040 C.3   100  ARG100      0.0307
     70  CG        85.3560   81.1800  181.9050 C.3   100  ARG100      0.0489
     71  CD        85.1330   81.1440  180.4240 C.3   100  ARG100      0.2205
     72  NE        86.2510   80.5330  179.7250 N.pl3 100  ARG100     -0.0865
     73  CZ        86.2130   80.1600  178.4530 C.cat 100  ARG100      0.5346
     74  NH1       85.1110   80.3270  177.7350 N.pl3 100  ARG100      0.1354
     75  NH2       87.2820   79.6260  177.8970 N.pl3 100  ARG100      0.1354
     76  N         82.7910   75.5670  183.7840 N.3   102  ARG102     -0.1231
     77  CA        83.0520   74.4040  182.9490 C.3   102  ARG102      0.1694
     78  C         84.5150   74.1650  182.5490 C.2   102  ARG102      0.2591
     79  O         84.9340   73.0160  182.4380 O.2   102  ARG102     -0.2718
     80  CB        82.1990   74.4650  181.6860 C.3   102  ARG102      0.0321
     81  CG        82.3270   73.2200  180.8310 C.3   102  ARG102      0.0489
     82  CD        81.5650   73.3690  179.5410 C.3   102  ARG102      0.2205
     83  NE        80.1390   73.5630  179.7730 N.pl3 102  ARG102     -0.0865
     84  CZ        79.3040   74.0440  178.8600 C.cat 102  ARG102      0.5346
     85  NH1       79.7540   74.3820  177.6580 N.pl3 102  ARG102      0.1354
     86  NH2       78.0200   74.1870  179.1450 N.pl3 102  ARG102      0.1354
     87  N         85.2860   75.2280  182.3210 N.am  103  GLN103     -0.1979
     88  CA        86.6910   75.0810  181.9310 C.3   103  GLN103      0.1601
     89  C         87.6230   74.8360  183.1130 C.2   103  GLN103      0.2287
     90  O         88.8370   74.9790  182.9950 O.2   103  GLN103     -0.2864
     91  CB        87.1780   76.3190  181.1810 C.3   103  GLN103      0.0394
     92  CG        86.7340   76.4010  179.7380 C.3   103  GLN103      0.0908
     93  CD        85.2300   76.3360  179.5950 C.2   103  GLN103      0.2608
     94  OE1       84.4960   76.8870  180.4160 O.2   103  GLN103     -0.2717
     95  NE2       84.7580   75.6750  178.5410 N.am  103  GLN103     -0.0878
     96  N         67.5310   77.7670  171.3830 N.3   163  ASP163     -0.1225
     97  CA        68.8450   77.6520  170.7700 C.3   163  ASP163      0.1805
     98  C         68.8780   76.6240  169.6880 C.2   163  ASP163      0.2597
     99  O         68.7250   75.4230  169.9390 O.2   163  ASP163     -0.2718
    100  CB        69.9250   77.3290  171.8030 C.3   163  ASP163      0.1424
    101  CG        71.3470   77.3180  171.2090 C.2   163  ASP163      0.3668
    102  OD1       71.5520   77.5680  169.9940 O.co2 163  ASP163     -0.2456
    103  OD2       72.2880   77.0500  171.9910 O.co2 163  ASP163     -0.2456
    104  N         69.0650   77.1440  168.4750 N.am  164  HIS164     -0.1975
    105  CA        69.1840   76.3510  167.2710 C.3   164  HIS164      0.1656
    106  C         67.8470   75.9480  166.6640 C.2   164  HIS164      0.2291
    107  O         67.0740   75.2050  167.2690 O.2   164  HIS164     -0.2864
    108  CB        70.0020   75.1300  167.6040 C.3   164  HIS164      0.0771
    109  CG        70.7510   74.5920  166.4480 C.ar  164  HIS164      0.0820
    110  ND1       70.2240   74.5730  165.1780 N.ar  164  HIS164     -0.2267
    111  CD2       71.9560   73.9820  166.3750 C.ar  164  HIS164      0.1154
    112  CE1       71.0710   73.9640  164.3710 C.ar  164  HIS164      0.1986
    113  NE2       72.1300   73.5960  165.0720 N.ar  164  HIS164     -0.2212
    114  N         71.8240   78.8680  162.1210 N.3   204  HIS204     -0.1241
    115  CA        73.1310   78.7900  161.5010 C.3   204  HIS204      0.1621
    116  C         73.2500   79.5740  160.2100 C.2   204  HIS204      0.2264
    117  O         72.2850   80.1720  159.7450 O.2   204  HIS204     -0.2867
    118  CB        73.4800   77.3230  161.2650 C.3   204  HIS204      0.0745
    119  CG        73.6990   76.5590  162.5300 C.ar  204  HIS204      0.0817
    120  ND1       74.9520   76.1760  162.9560 N.ar  204  HIS204     -0.2268
    121  CD2       72.8420   76.2020  163.5130 C.ar  204  HIS204      0.1154
    122  CE1       74.8560   75.6210  164.1510 C.ar  204  HIS204      0.1986
    123  NE2       73.5860   75.6240  164.5130 N.ar  204  HIS204     -0.2212
    124  N         83.5330   87.8900  164.1140 N.3   243  ARG243     -0.1245
    125  CA        84.8410   87.9630  164.7230 C.3   243  ARG243      0.1563
    126  C         85.7820   87.1250  163.8820 C.2   243  ARG243      0.2260
    127  O         85.3310   86.2830  163.1060 O.2   243  ARG243     -0.2867
    128  CB        84.8000   87.4870  166.1850 C.3   243  ARG243      0.0307
    129  CG        84.6900   85.9780  166.4320 C.3   243  ARG243      0.0489
    130  CD        84.5060   85.6860  167.9430 C.3   243  ARG243      0.2205
    131  NE        85.5400   84.8200  168.5180 N.pl3 243  ARG243     -0.0865
    132  CZ        85.3290   83.5640  168.9230 C.cat 243  ARG243      0.5346
    133  NH1       84.1230   83.0310  168.8180 N.pl3 243  ARG243      0.1354
    134  NH2       86.3180   82.8320  169.4330 N.pl3 243  ARG243      0.1354
    135  N         91.0880   87.6810  168.5830 N.3   250  PRO250     -0.2102
    136  CA        90.0750   86.6460  168.3600 C.3   250  PRO250      0.1504
    137  C         88.7790   86.8610  169.1230 C.2   250  PRO250      0.2575
    138  O         87.6940   86.6170  168.6020 O.2   250  PRO250     -0.2718
    139  CB        90.7790   85.3690  168.8140 C.3   250  PRO250      0.0282
    140  CG        92.2350   85.6940  168.7150 C.3   250  PRO250      0.0208
    141  CD        92.2920   87.1020  169.1980 C.3   250  PRO250      0.0893
    142  N         88.9060   87.2960  170.3700 N.am  251  ASN251     -0.1975
    143  CA        87.7640   87.5360  171.2350 C.3   251  ASN251      0.1688
    144  C         87.0120   88.8290  170.9300 C.2   251  ASN251      0.2292
    145  O         85.9470   89.0580  171.4910 O.2   251  ASN251     -0.2864
    146  CB        88.2420   87.5670  172.6670 C.3   251  ASN251      0.1181
    147  CG        89.6460   88.0890  172.7720 C.2   251  ASN251      0.2629
    148  OD1       90.0370   88.9960  172.0330 O.2   251  ASN251     -0.2716
    149  ND2       90.4240   87.5200  173.6880 N.am  251  ASN251     -0.0877
    150  N         84.5650   90.9810  169.0120 N.3   253  VAL253     -0.1245
    151  CA        83.4310   90.6380  168.1750 C.3   253  VAL253      0.1561
    152  C         82.6020   91.8530  167.7510 C.2   253  VAL253      0.2260
    153  O         82.2730   92.7110  168.5710 O.2   253  VAL253     -0.2867
    154  CB        82.5250   89.6020  168.8980 C.3   253  VAL253      0.0252
    155  CG1       82.3510   89.9930  170.3330 C.3   253  VAL253      0.0019
    156  CG2       81.1570   89.5190  168.2280 C.3   253  VAL253      0.0019
    157  N         85.4090   89.2590  174.5180 N.3   274  TYR274     -0.1241
    158  CA        85.1300   88.1480  175.3890 C.3   274  TYR274      0.1605
    159  C         86.2260   88.0630  176.4170 C.2   274  TYR274      0.2264
    160  O         87.4090   87.9820  176.0860 O.2   274  TYR274     -0.2867
    161  CB        85.0270   86.8430  174.5870 C.3   274  TYR274      0.0534
    162  CG        84.6000   85.6420  175.4070 C.ar  274  TYR274     -0.0201
    163  CD1       83.2630   85.4410  175.7260 C.ar  274  TYR274     -0.0009
    164  CD2       85.5360   84.7410  175.9070 C.ar  274  TYR274     -0.0009
    165  CE1       82.8560   84.3750  176.5280 C.ar  274  TYR274      0.0417
    166  CE2       85.1460   83.6680  176.7150 C.ar  274  TYR274      0.0417
    167  CZ        83.8040   83.4920  177.0250 C.ar  274  TYR274      0.1957
    168  OH        83.4000   82.4600  177.8530 O.3   274  TYR274     -0.2866
    169  N         88.1000   86.0580  178.6730 N.3   276  LYS276     -0.1245
    170  CA        88.4430   84.6550  178.8930 C.3   276  LYS276      0.1561
    171  C         88.4550   84.2810  180.3660 C.2   276  LYS276      0.2260
    172  O         88.3930   83.0970  180.7110 O.2   276  LYS276     -0.2867
    173  CB        89.8090   84.3340  178.3010 C.3   276  LYS276      0.0271
    174  CG        89.8350   84.1110  176.7940 C.3   276  LYS276      0.0035
    175  CD        91.1940   83.5610  176.3680 C.3   276  LYS276      0.0206
    176  CE        91.5270   82.2750  177.1570 C.3   276  LYS276      0.1093
    177  NZ        92.9930   81.9920  177.2890 N.3   276  LYS276     -0.1314
    178  N         80.5890   88.6610  178.0140 N.3   281  LEU281     -0.1245
    179  CA        80.7150   89.4030  176.7870 C.3   281  LEU281      0.1561
    180  C         80.6010   90.8590  177.2170 C.2   281  LEU281      0.2260
    181  O         79.5130   91.3850  177.3940 O.2   281  LEU281     -0.2867
    182  CB        79.5970   88.9910  175.8290 C.3   281  LEU281      0.0270
    183  CG        79.9360   88.5030  174.4110 C.3   281  LEU281      0.0019
    184  CD1       81.3290   87.9620  174.3190 C.3   281  LEU281      0.0001
    185  CD2       78.9300   87.4410  174.0160 C.3   281  LEU281      0.0001
@<TRIPOS>BOND
     1   117   116    2
     2   116   115    1
     3   118   115    1
     4   118   119    1
     5   115   114    1
     6   119   120   ar
     7   119   121   ar
     8   120   122   ar
     9     1     2    1
    10   127   126    2
    11     5     2    1
    12     5     6    1
    13    18    17    1
    14   121   123   ar
    15    17    16    1
    16   126   125    1
    17     2     3    1
    18   124   125    1
    19   122   123   ar
    20   112   113   ar
    21   112   110   ar
    22   125   128    1
    23     4     3    2
    24   113   111   ar
    25     3     7   am
    26   110   109   ar
    27    16    15    1
    28    31    30    1
    29    29    30    1
    30    29    28    1
    31    15    12    1
    32   128   129    1
    33     7     8    1
    34   111   109   ar
    35   129   130    1
    36   109   108    1
    37   106   107    2
    38   106   105    1
    39    28    27    1
    40   105   108    1
    41   105   104    1
    42    64    62   ar
    43    11    12    1
    44    11     9   am
    45    12    13    1
    46     8     9    1
    47   152   151    1
    48   152   153    2
    49     9    10    2
    50   130   131    1
    51   151   154    1
    52   151   150    1
    53   156   154    1
    54   136   135    1
    55   136   139    1
    56   136   137    1
    57    27    24    1
    58   104    98   am
    59   131   132    2
    60    62    63   ar
    61    62    61    1
    62   135   141    1
    63   138   137    2
    64    13    14    2
    65    13    19   am
    66   140   139    1
    67   140   141    1
    68   133   132    1
    69   154   155    1
    70   132   134    1
    71   137   142   am
    72    19    20    1
    73    23    24    1
    74    23    21   am
    75    24    25    1
    76    61    60    1
    77    98    99    2
    78    98    97    1
    79   102   101   ar
    80    20    21    1
    81   142   143    1
    82    21    22    2
    83    97    96    1
    84    97   100    1
    85    25    32   am
    86    25    26    2
    87   144   143    1
    88   144   145    2
    89    60    57    1
    90    32    33    1
    91   101   100    1
    92   101   103   ar
    93   143   146    1
    94    37    36    1
    95    57    56    1
    96    57    58    1
    97   148   147    2
    98    33    36    1
    99    33    34    1
   100   146   147    1
   101   147   149   am
   102    59    58    2
   103    34    38   am
   104    34    35    2
   105    38    39    1
   106   185   183    1
   107   184   183    1
   108   183   182    1
   109   157   158    1
   110   161   158    1
   111   161   162    1
   112    42    39    1
   113    42    43    1
   114    42    44    1
   115    39    40    1
   116    40    41    2
   117   158   159    1
   118   162   163   ar
   119   162   164   ar
   120   163   165   ar
   121    55    53    1
   122   182   179    1
   123   164   166   ar
   124    45    46    1
   125   160   159    2
   126   175   174    1
   127   175   176    1
   128   165   167   ar
   129   166   167   ar
   130   179   180    1
   131   179   178    1
   132   174   173    1
   133    53    54    1
   134    53    52    2
   135   167   168    1
   136   176   177    1
   137   180   181    2
   138    46    49    1
   139    46    47    1
   140    49    50    1
   141    52    51    1
   142    85    84    1
   143    74    73    1
   144    75    73    1
   145    47    48    2
   146   173   170    1
   147    73    72    2
   148    95    93   am
   149   169   170    1
   150    51    50    1
   151    84    86    1
   152    84    83    2
   153   170   171    1
   154    82    83    1
   155    82    81    1
   156    93    92    1
   157    93    94    2
   158    72    71    1
   159    92    91    1
   160   171   172    2
   161    71    70    1
   162    81    80    1
   163    91    88    1
   164    80    77    1
   165    70    69    1
   166    88    87    1
   167    88    89    1
   168    87    78   am
   169    79    78    2
   170    69    66    1
   171    78    77    1
   172    77    76    1
   173    90    89    2
   174    66    67    1
   175    66    65    1
   176    68    67    2
