@<TRIPOS>MOLECULE
tmp/1e0sA00.pdb
 104 99 0 0 0
SMALL
GASTEIGER

@<TRIPOS>ATOM
      1  N          5.2750   22.2630   50.6600 N.3    21  ASP21      -0.1225
      2  CA         4.3580   21.4960   49.8370 C.3    21  ASP21       0.1805
      3  C          5.1880   20.7700   48.7950 C.2    21  ASP21       0.2598
      4  O          6.1990   21.2980   48.3260 O.2    21  ASP21      -0.2718
      5  CB         3.3400   22.4330   49.1560 C.3    21  ASP21       0.1424
      6  CG         4.0370   23.5280   48.3340 C.2    21  ASP21       0.3668
      7  OD1        4.6740   24.4110   48.9120 O.co2  21  ASP21      -0.2456
      8  OD2        3.9680   23.4520   47.1120 O.co2  21  ASP21      -0.2456
      9  N          4.7640   19.5350   48.5120 N.am   22  ALA22      -0.1966
     10  CA         5.4070   18.6900   47.5260 C.3    22  ALA22       0.1728
     11  C          6.7160   18.0500   47.9880 C.2    22  ALA22       0.2616
     12  O          7.3320   17.2990   47.2140 O.2    22  ALA22      -0.2715
     13  CB         5.6050   19.4500   46.1680 C.3    22  ALA22       0.0334
     14  N          7.1330   18.2460   49.2690 N.am   23  ALA23      -0.1963
     15  CA         8.3780   17.6520   49.7580 C.3    23  ALA23       0.1728
     16  C          8.3200   16.1310   49.8070 C.2    23  ALA23       0.2617
     17  O          9.3290   15.4630   49.6170 O.2    23  ALA23      -0.2715
     18  CB         8.6920   18.1500   51.1580 C.3    23  ALA23       0.0334
     19  N          7.1230   15.5550   50.0260 N.am   24  GLY24      -0.1940
     20  CA         6.9380   14.1160   50.0560 C.3    24  GLY24       0.2014
     21  C          6.2510   13.6520   51.3410 C.2    24  GLY24       0.2639
     22  O          6.2670   12.4640   51.6150 O.2    24  GLY24      -0.2714
     23  N          5.5890   14.5040   52.1430 N.am   25  LYS25      -0.1963
     24  CA         5.0250   14.0770   53.4300 C.3    25  LYS25       0.1728
     25  C          3.9080   13.0430   53.3470 C.2    25  LYS25       0.2617
     26  O          3.9220   12.0130   54.0280 O.2    25  LYS25      -0.2715
     27  CB         4.5320   15.3110   54.2030 C.3    25  LYS25       0.0311
     28  CG         5.6850   16.3250   54.3930 C.3    25  LYS25       0.0038
     29  CD         5.2650   17.5890   55.1430 C.3    25  LYS25       0.0206
     30  CE         4.2310   18.4640   54.4070 C.3    25  LYS25       0.1093
     31  NZ         4.7360   18.9560   53.1350 N.3    25  LYS25      -0.1314
     32  N          2.9090   13.2980   52.5000 N.am   26  THR26      -0.1937
     33  CA         1.8180   12.3530   52.2940 C.3    26  THR26       0.2028
     34  C          2.3530   10.9780   51.8490 C.2    26  THR26       0.2642
     35  O          1.9220    9.9540   52.3570 O.2    26  THR26      -0.2714
     36  CB         0.8150   12.9230   51.2330 C.3    26  THR26       0.1808
     37  OG1        0.2150   14.0810   51.7610 O.3    26  THR26      -0.2208
     38  CG2       -0.3130   11.9710   50.8860 C.3    26  THR26       0.0379
     39  N          3.3140   10.9250   50.9240 N.am   27  THR27      -0.1950
     40  CA         3.9050    9.6810   50.3960 C.3    27  THR27       0.1897
     41  C          4.5920    8.8930   51.4850 C.2    27  THR27       0.2313
     42  O          4.4470    7.6740   51.5570 O.2    27  THR27      -0.2863
     43  CB         4.9780    9.9600   49.3090 C.3    27  THR27       0.1794
     44  OG1        4.3700   10.8480   48.3740 O.3    27  THR27      -0.2208
     45  CG2        5.4770    8.6900   48.6020 C.3    27  THR27       0.0378
     46  N          2.1090   21.6680   55.8340 N.3    62  ASP62      -0.1239
     47  CA         3.0190   22.3480   54.9330 C.3    62  ASP62       0.1674
     48  C          3.5030   23.6400   55.5480 C.2    62  ASP62       0.2266
     49  O          2.7220   24.4200   56.1000 O.2    62  ASP62      -0.2867
     50  CB         2.3160   22.7240   53.6440 C.3    62  ASP62       0.1410
     51  CG         1.8030   21.5700   52.7920 C.2    62  ASP62       0.3668
     52  OD1        2.2580   20.4450   52.9530 O.co2  62  ASP62      -0.2456
     53  OD2        0.9670   21.8200   51.9290 O.co2  62  ASP62      -0.2456
     54  N         14.8460   14.0070   50.6820 N.3   121  ASN121     -0.1225
     55  CA        13.9790   13.1690   49.8860 C.3   121  ASN121      0.1785
     56  C         14.1900   13.3800   48.3880 C.2   121  ASN121      0.2597
     57  O         14.7270   14.4000   47.9550 O.2   121  ASN121     -0.2718
     58  CB        12.5180   13.4300   50.3390 C.3   121  ASN121      0.1169
     59  CG        11.5160   12.3840   49.8490 C.2   121  ASN121      0.2627
     60  OD1       11.8450   11.1980   49.8160 O.2   121  ASN121     -0.2716
     61  ND2       10.2990   12.7460   49.4070 N.am  121  ASN121     -0.0877
     62  N         13.7460   12.3850   47.5950 N.am  122  LYS122     -0.1980
     63  CA        13.8040   12.3900   46.1320 C.3   122  LYS122      0.1596
     64  C         15.2220   12.2750   45.5970 C.2   122  LYS122      0.2287
     65  O         15.5570   12.8300   44.5430 O.2   122  LYS122     -0.2864
     66  CB        13.0750   13.6040   45.4650 C.3   122  LYS122      0.0298
     67  CG        11.7100   13.9160   46.0250 C.3   122  LYS122      0.0038
     68  CD        10.8300   14.7980   45.1260 C.3   122  LYS122      0.0206
     69  CE         9.5960   15.2810   45.9340 C.3   122  LYS122      0.1093
     70  NZ         8.8200   16.2540   45.1720 N.3   122  LYS122     -0.1314
     71  N         16.4020    9.9280   44.0410 N.3   124  ASP124     -0.1225
     72  CA        16.3270    9.2780   42.7360 C.3   124  ASP124      0.1805
     73  C         16.1870   10.2660   41.5760 C.2   124  ASP124      0.2597
     74  O         16.4080    9.8980   40.4210 O.2   124  ASP124     -0.2718
     75  CB        15.1580    8.3000   42.7450 C.3   124  ASP124      0.1424
     76  CG        13.8080    8.9970   42.9650 C.2   124  ASP124      0.3668
     77  OD1       13.6390    9.6810   43.9680 O.co2 124  ASP124     -0.2456
     78  OD2       12.9430    8.8790   42.1090 O.co2 124  ASP124     -0.2456
     79  N         15.8320   11.5260   41.8460 N.am  125  LEU125     -0.1979
     80  CA        15.6220   12.4970   40.7850 C.3   125  LEU125      0.1596
     81  C         16.8870   13.1730   40.2340 C.2   125  LEU125      0.2287
     82  O         17.8770   13.3520   40.9620 O.2   125  LEU125     -0.2864
     83  CB        14.5570   13.5470   41.2140 C.3   125  LEU125      0.0297
     84  CG        13.1030   13.0590   41.3300 C.3   125  LEU125      0.0022
     85  CD1       12.1960   14.2270   41.7060 C.3   125  LEU125      0.0001
     86  CD2       12.6130   12.4250   40.0250 C.3   125  LEU125      0.0001
     87  N         14.0900    7.9590   49.4380 N.3   154  CYS154     -0.1221
     88  CA        13.2660    7.8650   48.2360 C.3   154  CYS154      0.1808
     89  C         11.9180    7.3300   48.6850 C.2   154  CYS154      0.2601
     90  O         11.7020    6.1220   48.8320 O.2   154  CYS154     -0.2717
     91  CB        13.8440    6.8900   47.2070 C.3   154  CYS154      0.0970
     92  SG        15.3880    7.5050   46.4760 S.3   154  CYS154     -0.0800
     93  N         11.0270    8.2540   49.0100 N.am  155  ALA155     -0.1965
     94  CA         9.7890    7.9070   49.6960 C.3   155  ALA155      0.1728
     95  C          8.8840    7.0410   48.8320 C.2   155  ALA155      0.2616
     96  O          8.1940    6.1820   49.3600 O.2   155  ALA155     -0.2715
     97  CB         9.0190    9.1840   50.0450 C.3   155  ALA155      0.0334
     98  N          8.9410    7.2200   47.5030 N.am  156  THR156     -0.1951
     99  CA         8.1560    6.4150   46.5850 C.3   156  THR156      0.1897
    100  C          8.4760    4.9440   46.6110 C.2   156  THR156      0.2313
    101  O          7.5870    4.1140   46.4580 O.2   156  THR156     -0.2863
    102  CB         8.2560    6.9310   45.1560 C.3   156  THR156      0.1794
    103  OG1        9.6320    7.1510   44.8580 O.3   156  THR156     -0.2208
    104  CG2        7.4570    8.2080   45.0320 C.3   156  THR156      0.0378
@<TRIPOS>BOND
     1    86    84    1
     2    81    80    1
     3    81    82    2
     4    74    73    2
     5    80    83    1
     6    80    79    1
     7    83    84    1
     8    84    85    1
     9    73    79   am
    10    73    72    1
    11    78    76   ar
    12    72    75    1
    13    72    71    1
    14    75    76    1
    15    76    77   ar
    16    65    64    2
    17   103   102    1
    18   104   102    1
    19    68    69    1
    20    68    67    1
    21   102    99    1
    22    70    69    1
    23    66    67    1
    24    66    63    1
    25    64    63    1
    26    63    62    1
    27    13    10    1
    28   101   100    2
    29    92    91    1
    30    99   100    1
    31    99    98    1
    32     8     6   ar
    33    91    88    1
    34    12    11    2
    35    98    95   am
    36    10    11    1
    37    10     9    1
    38    62    56   am
    39    57    56    2
    40    11    14   am
    41    88    89    1
    42    88    87    1
    43     4     3    2
    44     6     7   ar
    45     6     5    1
    46    44    43    1
    47    56    55    1
    48     9     3   am
    49    45    43    1
    50    89    90    2
    51    89    93   am
    52     3     2    1
    53    95    96    2
    54    95    94    1
    55    93    94    1
    56     5     2    1
    57    14    15    1
    58    43    40    1
    59    61    59   am
    60    17    16    2
    61    94    97    1
    62    15    16    1
    63    15    18    1
    64    16    19   am
    65    60    59    2
    66     2     1    1
    67    59    58    1
    68    55    58    1
    69    55    54    1
    70    19    20    1
    71    20    21    1
    72    40    39    1
    73    40    41    1
    74    38    36    1
    75    39    34   am
    76    36    37    1
    77    36    33    1
    78    21    22    2
    79    21    23   am
    80    41    42    2
    81    34    33    1
    82    34    35    2
    83    53    51   ar
    84    23    24    1
    85    33    32    1
    86    32    25   am
    87    51    52   ar
    88    51    50    1
    89    31    30    1
    90    25    24    1
    91    25    26    2
    92    24    27    1
    93    50    47    1
    94    27    28    1
    95    28    29    1
    96    30    29    1
    97    47    48    1
    98    47    46    1
    99    48    49    2
