@<TRIPOS>MOLECULE
tmp/1e0vA00.pdb
 157 153 0 0 0
SMALL
GASTEIGER

@<TRIPOS>ATOM
      1  N         10.5300    9.1540   20.9900 N.3    44  GLU44      -0.1231
      2  CA         9.7610    9.9410   20.0210 C.3    44  GLU44       0.1699
      3  C          8.9320   11.0500   20.6480 C.2    44  GLU44       0.2592
      4  O          8.8940   12.1650   20.1050 O.2    44  GLU44      -0.2718
      5  CB         8.8740    9.0260   19.1710 C.3    44  GLU44       0.0402
      6  CG         8.4040    9.7040   17.8860 C.3    44  GLU44       0.1161
      7  CD         7.5380    8.8110   17.0260 C.2    44  GLU44       0.3649
      8  OE1        7.3580    7.6160   17.3270 O.co2  44  GLU44      -0.2457
      9  OE2        7.0290    9.2980   15.9940 O.co2  44  GLU44      -0.2457
     10  N          8.2360   10.7840   21.7520 N.am   45  ASN45      -0.1974
     11  CA         7.3740   11.7890   22.3670 C.3    45  ASN45       0.1688
     12  C          7.4460   11.8180   23.8900 C.2    45  ASN45       0.2292
     13  O          7.0620   12.8120   24.5220 O.2    45  ASN45      -0.2864
     14  CB         5.9090   11.4130   22.0740 C.3    45  ASN45       0.1181
     15  CG         5.3920   11.6240   20.6770 C.2    45  ASN45       0.2629
     16  OD1        5.2540   12.7520   20.2070 O.2    45  ASN45      -0.2716
     17  ND2        5.0890   10.5180   19.9970 N.am   45  ASN45      -0.0877
     18  N          9.1190   14.7600   26.1060 N.3    48  LYS48      -0.1245
     19  CA         8.6730   16.1340   25.8520 C.3    48  LYS48       0.1561
     20  C          7.9960   16.7130   27.0860 C.2    48  LYS48       0.2260
     21  O          7.7600   16.0360   28.1040 O.2    48  LYS48      -0.2867
     22  CB         7.7530   16.1770   24.6220 C.3    48  LYS48       0.0271
     23  CG         8.4800   15.7910   23.3410 C.3    48  LYS48       0.0035
     24  CD         7.5150   15.5780   22.1850 C.3    48  LYS48       0.0206
     25  CE         8.2610   15.2490   20.9050 C.3    48  LYS48       0.1093
     26  NZ         7.3720   14.7610   19.8200 N.3    48  LYS48      -0.1314
     27  N         15.0910   14.3780   24.4290 N.3    81  HIS81      -0.1241
     28  CA        14.3750   15.3100   23.5390 C.3    81  HIS81       0.1621
     29  C         12.9970   15.5890   24.0830 C.2    81  HIS81       0.2264
     30  O         12.2320   14.6550   24.3010 O.2    81  HIS81      -0.2867
     31  CB        14.2890   14.5730   22.1870 C.3    81  HIS81       0.0745
     32  CG        13.4520   15.2750   21.1660 C.ar   81  HIS81       0.0817
     33  ND1       13.9660   16.2670   20.3580 N.ar   81  HIS81      -0.2268
     34  CD2       12.1480   15.1480   20.8250 C.ar   81  HIS81       0.1154
     35  CE1       13.0140   16.7170   19.5630 C.ar   81  HIS81       0.1986
     36  NE2       11.9000   16.0600   19.8250 N.ar   81  HIS81      -0.2212
     37  N         10.3590   24.0490   24.1690 N.3    85  TRP85      -0.1241
     38  CA         9.8590   24.0840   22.7880 C.3    85  TRP85       0.1605
     39  C          8.4900   24.7430   22.7790 C.2    85  TRP85       0.2264
     40  O          7.7370   24.5580   23.7320 O.2    85  TRP85      -0.2867
     41  CB         9.7600   22.6300   22.3240 C.3    85  TRP85       0.0550
     42  CG         9.4200   22.3160   20.9060 C.ar   85  TRP85       0.0003
     43  CD1        9.5790   23.0750   19.7830 C.ar   85  TRP85       0.0946
     44  CD2        8.8910   21.0500   20.4490 C.ar   85  TRP85       0.0152
     45  NE1        9.1640   22.3740   18.6730 N.ar   85  TRP85      -0.2442
     46  CE2        8.7330   21.1340   19.0540 C.ar   85  TRP85       0.0810
     47  CE3        8.5150   19.8680   21.0890 C.ar   85  TRP85       0.0012
     48  CZ2        8.2280   20.0880   18.2750 C.ar   85  TRP85       0.0191
     49  CZ3        8.0180   18.8230   20.3300 C.ar   85  TRP85       0.0001
     50  CH2        7.8770   18.9360   18.9410 C.ar   85  TRP85       0.0015
     51  N          6.0180   23.9090   20.7820 N.3    87  SER87      -0.1202
     52  CA         5.0180   22.9160   20.4460 C.3    87  SER87       0.2020
     53  C          4.8450   21.8530   21.5180 C.2    87  SER87       0.2618
     54  O          5.7650   21.5390   22.2620 O.2    87  SER87      -0.2717
     55  CB         5.4320   22.2570   19.1220 C.3    87  SER87       0.2103
     56  OG         4.3850   21.4570   18.6170 O.3    87  SER87      -0.2182
     57  N          3.6240   21.3550   21.6320 N.am   88  GLN88      -0.1979
     58  CA         3.2900   20.2860   22.5670 C.3    88  GLN88       0.1601
     59  C          3.3750   20.6680   24.0360 C.2    88  GLN88       0.2287
     60  O          3.6490   19.7910   24.8680 O.2    88  GLN88      -0.2864
     61  CB         4.1750   19.0460   22.3270 C.3    88  GLN88       0.0394
     62  CG         3.9960   18.3440   20.9830 C.3    88  GLN88       0.0908
     63  CD         2.5770   17.8920   20.7550 C.2    88  GLN88       0.2608
     64  OE1        2.0130   17.2030   21.6270 O.2    88  GLN88      -0.2717
     65  NE2        1.9530   18.3410   19.7110 N.am   88  GLN88      -0.0878
     66  N         14.3570   23.5480   21.1450 N.3   127  ASN127     -0.1225
     67  CA        13.9550   23.0470   19.8360 C.3   127  ASN127      0.1785
     68  C         13.2000   24.0880   19.0230 C.2   127  ASN127      0.2597
     69  O         12.2880   24.7680   19.4880 O.2   127  ASN127     -0.2718
     70  CB        13.1030   21.7810   20.0340 C.3   127  ASN127      0.1169
     71  CG        12.9700   20.9070   18.8060 C.2   127  ASN127      0.2627
     72  OD1       13.9260   20.7720   18.0530 O.2   127  ASN127     -0.2716
     73  ND2       11.7990   20.3060   18.6130 N.am  127  ASN127     -0.0877
     74  N         13.5640   24.1830   17.7420 N.am  128  GLU128     -0.1979
     75  CA        12.8440   24.9910   16.7630 C.3   128  GLU128      0.1602
     76  C         12.5030   26.4200   17.1400 C.2   128  GLU128      0.2287
     77  O         11.3520   26.8690   17.0200 O.2   128  GLU128     -0.2864
     78  CB        11.5200   24.2400   16.4660 C.3   128  GLU128      0.0415
     79  CG        11.7670   22.8360   15.9200 C.3   128  GLU128      0.1163
     80  CD        10.5170   22.0350   15.6320 C.2   128  GLU128      0.3649
     81  OE1        9.3690   22.5030   15.8310 O.co2 128  GLU128     -0.2457
     82  OE2       10.6910   20.8750   15.2000 O.co2 128  GLU128     -0.2457
     83  N         17.8630   18.6830   12.0420 N.3   205  GLN205     -0.1245
     84  CA        16.7830   17.7040   11.9240 C.3   205  GLN205      0.1566
     85  C         16.8850   16.9130   10.6330 C.2   205  GLN205      0.2260
     86  O         16.6580   15.7050   10.6940 O.2   205  GLN205     -0.2867
     87  CB        15.4020   18.3450   12.0530 C.3   205  GLN205      0.0367
     88  CG        15.1580   18.8020   13.4900 C.3   205  GLN205      0.0905
     89  CD        13.7320   19.2670   13.6980 C.2   205  GLN205      0.2608
     90  OE1       12.8440   18.8770   12.9500 O.2   205  GLN205     -0.2717
     91  NE2       13.5130   20.0830   14.7300 N.am  205  GLN205     -0.0878
     92  N         15.0070   16.8440    7.7650 N.3   207  HIS207     -0.1241
     93  CA        13.7690   16.4000    7.1390 C.3   207  HIS207      0.1621
     94  C         13.8540   16.8880    5.6850 C.2   207  HIS207      0.2264
     95  O         13.4860   18.0310    5.3980 O.2   207  HIS207     -0.2867
     96  CB        12.5250   16.9900    7.7910 C.3   207  HIS207      0.0745
     97  CG        12.2180   16.4390    9.1490 C.ar  207  HIS207      0.0817
     98  ND1       12.0050   15.0980    9.3750 N.ar  207  HIS207     -0.2268
     99  CD2       12.0740   17.0650   10.3420 C.ar  207  HIS207      0.1154
    100  CE1       11.7520   14.9160   10.6660 C.ar  207  HIS207      0.1986
    101  NE2       11.7910   16.0850   11.2660 N.ar  207  HIS207     -0.2212
    102  N         16.8920   13.9730   13.1380 N.3   236  GLU236     -0.1245
    103  CA        15.5650   13.4330   12.8260 C.3   236  GLU236      0.1567
    104  C         15.4310   13.0930   11.3490 C.2   236  GLU236      0.2260
    105  O         14.4480   13.4210   10.6960 O.2   236  GLU236     -0.2867
    106  CB        14.5130   14.4850   13.2220 C.3   236  GLU236      0.0388
    107  CG        14.5120   14.7640   14.7270 C.3   236  GLU236      0.1160
    108  CD        13.6630   15.8790   15.1470 C.2   236  GLU236      0.3649
    109  OE1       12.3770   15.9010   14.8660 O.co2 236  GLU236     -0.2457
    110  OE2       14.0430   16.8990   15.7630 O.co2 236  GLU236     -0.2457
    111  N         14.9560   11.8610    7.6480 N.3   238  ASP238     -0.1239
    112  CA        13.9800   11.1480    6.8230 C.3   238  ASP238      0.1674
    113  C         14.0160   11.8990    5.4930 C.2   238  ASP238      0.2266
    114  O         14.4080   13.0720    5.4430 O.2   238  ASP238     -0.2867
    115  CB        12.6060   10.9710    7.4150 C.3   238  ASP238      0.1410
    116  CG        11.9440   12.1880    8.0100 C.2   238  ASP238      0.3668
    117  OD1       12.1110   13.2980    7.4670 O.co2 238  ASP238     -0.2456
    118  OD2       11.2480   12.0470    9.0480 O.co2 238  ASP238     -0.2456
    119  N         14.4130    9.3140   11.8430 N.3   266  TRP266     -0.1241
    120  CA        13.2140    9.4620   12.6820 C.3   266  TRP266      0.1605
    121  C         12.1790    8.3580   12.5200 C.2   266  TRP266      0.2264
    122  O         11.0500    8.5720   12.0750 O.2   266  TRP266     -0.2867
    123  CB        12.6150   10.8660   12.5180 C.3   266  TRP266      0.0550
    124  CG        11.7950   11.2770   13.7160 C.ar  266  TRP266      0.0003
    125  CD1       10.4370   11.4410   13.7470 C.ar  266  TRP266      0.0946
    126  CD2       12.2640   11.5570   15.0380 C.ar  266  TRP266      0.0152
    127  NE1       10.0370   11.8110   15.0080 N.ar  266  TRP266     -0.2442
    128  CE2       11.1420   11.8950   15.8190 C.ar  266  TRP266      0.0810
    129  CE3       13.5320   11.5710   15.6320 C.ar  266  TRP266      0.0012
    130  CZ2       11.2370   12.2290   17.1690 C.ar  266  TRP266      0.0191
    131  CZ3       13.6410   11.9140   16.9730 C.ar  266  TRP266      0.0001
    132  CH2       12.4980   12.2300   17.7180 C.ar  266  TRP266      0.0015
    133  N          5.4630    9.5840   11.0330 N.3   274  TRP274     -0.1227
    134  CA         4.3180   10.4650   10.8040 C.3   274  TRP274      0.1737
    135  C          4.1960   10.7440    9.3050 C.2   274  TRP274      0.2595
    136  O          3.1100   10.9960    8.7780 O.2   274  TRP274     -0.2718
    137  CB         4.4090   11.7860   11.5540 C.3   274  TRP274      0.0564
    138  CG         4.3020   11.7010   13.0340 C.ar  274  TRP274      0.0003
    139  CD1        4.2810   10.5820   13.8140 C.ar  274  TRP274      0.0946
    140  CD2        4.1410   12.7700   13.9360 C.ar  274  TRP274      0.0152
    141  NE1        4.1690   10.9230   15.1440 N.ar  274  TRP274     -0.2442
    142  CE2        4.0560   12.2660   15.2340 C.ar  274  TRP274      0.0810
    143  CE3        3.9890   14.1420   13.7090 C.ar  274  TRP274      0.0012
    144  CZ2        3.9060   13.0770   16.3290 C.ar  274  TRP274      0.0191
    145  CZ3        3.8440   14.9360   14.8220 C.ar  274  TRP274      0.0001
    146  CH2        3.7670   14.4120   16.0870 C.ar  274  TRP274      0.0015
    147  N          5.3100   10.6440    8.5850 N.am  275  ARG275     -0.1980
    148  CA         5.3470   10.8540    7.1510 C.3   275  ARG275      0.1597
    149  C          5.3450    9.5390    6.3860 C.2   275  ARG275      0.2287
    150  O          5.9030    9.4790    5.2850 O.2   275  ARG275     -0.2864
    151  CB         6.6120   11.6620    6.8300 C.3   275  ARG275      0.0334
    152  CG         6.6690   12.9530    7.6460 C.3   275  ARG275      0.0492
    153  CD         8.0210   13.6310    7.5100 C.3   275  ARG275      0.2205
    154  NE         7.8700   15.0470    7.7570 N.pl3 275  ARG275     -0.0865
    155  CZ         8.6350   15.9810    7.2020 C.cat 275  ARG275      0.5346
    156  NH1        9.6020   15.6370    6.3560 N.pl3 275  ARG275      0.1354
    157  NH2        8.4540   17.2610    7.5060 N.pl3 275  ARG275      0.1354
@<TRIPOS>BOND
     1   150   149    2
     2    95    94    2
     3   114   113    2
     4   113   112    1
     5    94    93    1
     6   156   155    1
     7   149   148    1
     8   112   115    1
     9   112   111    1
    10   151   148    1
    11   151   152    1
    12    93    92    1
    13    93    96    1
    14   148   147    1
    15   155   157    1
    16   155   154    2
    17   115   116    1
    18   117   116   ar
    19   153   152    1
    20   153   154    1
    21    96    97    1
    22   116   118   ar
    23   147   135   am
    24   136   135    2
    25    97    98   ar
    26    97    99   ar
    27   135   134    1
    28    98   100   ar
    29    99   101   ar
    30    85    86    2
    31    85    84    1
    32   100   101   ar
    33   105   104    2
    34   134   133    1
    35   134   137    1
    36   104   103    1
    37   137   138    1
    38   119   120    1
    39    84    83    1
    40    84    87    1
    41    87    88    1
    42   122   121    2
    43   123   120    1
    44   123   124    1
    45   121   120    1
    46   103   102    1
    47   103   106    1
    48    90    89    2
    49   138   139   ar
    50   138   140   ar
    51   106   107    1
    52    88    89    1
    53    89    91   am
    54   143   140   ar
    55   143   145   ar
    56   124   125   ar
    57   124   126   ar
    58   125   127   ar
    59   139   141   ar
    60   140   142   ar
    61   107   108    1
    62   145   146   ar
    63   109   108   ar
    64   127   128   ar
    65   126   129   ar
    66   126   128   ar
    67   141   142   ar
    68   108   110   ar
    69    82    80   ar
    70   142   144   ar
    71   129   131   ar
    72    80    81   ar
    73    80    79    1
    74   128   130   ar
    75    79    78    1
    76     9     7   ar
    77   146   144   ar
    78    78    75    1
    79    75    76    1
    80    75    74    1
    81   131   132   ar
    82    77    76    2
    83     7     8   ar
    84     7     6    1
    85   130   132   ar
    86    74    68   am
    87     6     5    1
    88    72    71    2
    89    48    50   ar
    90    48    46   ar
    91    73    71   am
    92    56    55    1
    93    45    46   ar
    94    45    43   ar
    95    71    70    1
    96    50    49   ar
    97    68    69    2
    98    68    67    1
    99    46    44   ar
   100    55    52    1
   101     5     2    1
   102    35    36   ar
   103    35    33   ar
   104    65    63   am
   105    43    42   ar
   106    26    25    1
   107    36    34   ar
   108    67    70    1
   109    67    66    1
   110    17    15   am
   111     2     3    1
   112     2     1    1
   113     4     3    2
   114    16    15    2
   115    49    47   ar
   116    33    32   ar
   117    52    51    1
   118    52    53    1
   119    44    42   ar
   120    44    47   ar
   121     3    10   am
   122    15    14    1
   123    63    62    1
   124    63    64    2
   125    34    32   ar
   126    25    24    1
   127    42    41    1
   128    62    61    1
   129    32    31    1
   130    53    57   am
   131    53    54    2
   132    57    58    1
   133    10    11    1
   134    14    11    1
   135    24    23    1
   136    31    28    1
   137    41    38    1
   138    61    58    1
   139    11    12    1
   140    58    59    1
   141    39    38    1
   142    39    40    2
   143    38    37    1
   144    23    22    1
   145    28    29    1
   146    28    27    1
   147    12    13    2
   148    59    60    2
   149    29    30    2
   150    22    19    1
   151    19    18    1
   152    19    20    1
   153    20    21    2
