@<TRIPOS>MOLECULE
tmp/1e0xB00.pdb
 132 129 0 0 0
SMALL
GASTEIGER

@<TRIPOS>ATOM
      1  N         17.9930    5.6120   77.7010 N.3    44  GLU44      -0.1231
      2  CA        18.7950    4.3700   77.6000 C.3    44  GLU44       0.1699
      3  C         18.2760    3.3070   78.5440 C.2    44  GLU44       0.2592
      4  O         18.3390    2.1060   78.2220 O.2    44  GLU44      -0.2718
      5  CB        20.2700    4.6950   77.8370 C.3    44  GLU44       0.0402
      6  CG        21.1470    3.5130   77.4480 C.3    44  GLU44       0.1161
      7  CD        22.6350    3.7690   77.6170 C.2    44  GLU44       0.3649
      8  OE1       23.0490    4.8060   78.1900 O.co2  44  GLU44      -0.2457
      9  OE2       23.4020    2.8570   77.2080 O.co2  44  GLU44      -0.2457
     10  N         17.8980    3.7300   79.7700 N.am   45  ASN45      -0.1974
     11  CA        17.3980    2.7580   80.7420 C.3    45  ASN45       0.1688
     12  C         16.2630    3.2340   81.6170 C.2    45  ASN45       0.2292
     13  O         15.6280    2.4180   82.2880 O.2    45  ASN45      -0.2864
     14  CB        18.5860    2.4310   81.6650 C.3    45  ASN45       0.1181
     15  CG        19.6100    1.5000   81.0810 C.2    45  ASN45       0.2629
     16  OD1       19.3560    0.3300   80.7450 O.2    45  ASN45      -0.2716
     17  ND2       20.8110    2.0620   80.8610 N.am   45  ASN45      -0.0877
     18  N         12.5630    1.8730   81.4060 N.3    48  LYS48      -0.1245
     19  CA        12.3830    0.4300   81.4810 C.3    48  LYS48       0.1561
     20  C         11.5420    0.0360   82.6850 C.2    48  LYS48       0.2260
     21  O         11.1960    0.8330   83.5490 O.2    48  LYS48      -0.2867
     22  CB        13.7290   -0.3030   81.4860 C.3    48  LYS48       0.0271
     23  CG        14.4250   -0.1280   80.1490 C.3    48  LYS48       0.0035
     24  CD        15.8500   -0.6750   80.1430 C.3    48  LYS48       0.0206
     25  CE        16.4860   -0.4460   78.7720 C.3    48  LYS48       0.1093
     26  NZ        17.9200   -0.8710   78.7190 N.3    48  LYS48      -0.1314
     27  N         10.7790    3.5360   75.8240 N.3    81  HIS81      -0.1241
     28  CA        11.3710    2.1820   75.7440 C.3    81  HIS81       0.1621
     29  C         11.5500    1.6610   77.1600 C.2    81  HIS81       0.2264
     30  O         12.2510    2.3210   77.9550 O.2    81  HIS81      -0.2867
     31  CB        12.7570    2.4300   75.1510 C.3    81  HIS81       0.0745
     32  CG        13.6000    1.1990   75.0370 C.ar   81  HIS81       0.0817
     33  ND1       13.4360    0.2960   74.0190 N.ar   81  HIS81      -0.2268
     34  CD2       14.5740    0.7290   75.8340 C.ar   81  HIS81       0.1154
     35  CE1       14.3110   -0.7100   74.2250 C.ar   81  HIS81       0.1986
     36  NE2       14.9850   -0.4670   75.3200 N.ar   81  HIS81      -0.2212
     37  N          8.9500   -6.7990   78.5600 N.3    85  TRP85      -0.1241
     38  CA        10.2260   -7.3540   78.1290 C.3    85  TRP85       0.1605
     39  C         10.6780   -8.3680   79.1700 C.2    85  TRP85       0.2264
     40  O         10.4370   -8.1130   80.3400 O.2    85  TRP85      -0.2867
     41  CB        11.2390   -6.1950   78.1040 C.3    85  TRP85       0.0550
     42  CG        12.5760   -6.4990   77.5060 C.ar   85  TRP85       0.0003
     43  CD1       12.9700   -7.5240   76.7150 C.ar   85  TRP85       0.0946
     44  CD2       13.7470   -5.6770   77.6570 C.ar   85  TRP85       0.0152
     45  NE1       14.3030   -7.3890   76.3370 N.ar   85  TRP85      -0.2442
     46  CE2       14.8010   -6.2270   76.9090 C.ar   85  TRP85       0.0810
     47  CE3       13.9930   -4.4820   78.3400 C.ar   85  TRP85       0.0012
     48  CZ2       16.0850   -5.6740   76.8570 C.ar   85  TRP85       0.0191
     49  CZ3       15.2430   -3.9400   78.2860 C.ar   85  TRP85       0.0001
     50  CH2       16.3030   -4.5000   77.5370 C.ar   85  TRP85       0.0015
     51  N         15.6270   -6.8220   82.3050 N.3    88  GLN88      -0.1245
     52  CA        15.5250   -5.6730   83.1720 C.3    88  GLN88       0.1566
     53  C         14.2030   -5.5430   83.8870 C.2    88  GLN88       0.2260
     54  O         13.6870   -4.4410   84.1220 O.2    88  GLN88      -0.2867
     55  CB        15.9950   -4.3690   82.5270 C.3    88  GLN88       0.0367
     56  CG        17.5050   -4.3670   82.2880 C.3    88  GLN88       0.0905
     57  CD        17.9880   -3.1830   81.4540 C.2    88  GLN88       0.2608
     58  OE1       18.0360   -3.2530   80.2180 O.2    88  GLN88      -0.2717
     59  NE2       18.3230   -2.1150   82.1570 N.am   88  GLN88      -0.0878
     60  N          9.4020   -5.9160   73.6000 N.3   127  ASN127     -0.1225
     61  CA        10.7550   -6.0350   73.1210 C.3   127  ASN127      0.1785
     62  C         11.2490   -7.4780   73.2120 C.2   127  ASN127      0.2597
     63  O         10.9960   -8.1540   74.2010 O.2   127  ASN127     -0.2718
     64  CB        11.6570   -5.2010   74.0620 C.3   127  ASN127      0.1169
     65  CG        12.9580   -4.7580   73.4960 C.2   127  ASN127      0.2627
     66  OD1       13.1410   -4.6160   72.2920 O.2   127  ASN127     -0.2716
     67  ND2       13.9550   -4.5710   74.3770 N.am  127  ASN127     -0.0877
     68  N         11.9280   -7.9420   72.1700 N.am  128  GLU128     -0.1979
     69  CA        12.7000   -9.1770   72.1830 C.3   128  GLU128      0.1602
     70  C         11.9560  -10.4280   72.6120 C.2   128  GLU128      0.2287
     71  O         12.4560  -11.2540   73.3690 O.2   128  GLU128     -0.2864
     72  CB        13.9300   -8.9800   73.1170 C.3   128  GLU128      0.0415
     73  CG        14.8520   -7.8730   72.6900 C.3   128  GLU128      0.1163
     74  CD        16.0700   -7.6480   73.5520 C.2   128  GLU128      0.3649
     75  OE1       16.2880   -8.4050   74.5030 O.co2 128  GLU128     -0.2457
     76  OE2       16.8240   -6.6880   73.2840 O.co2 128  GLU128     -0.2457
     77  N         16.5900   -3.3240   65.9010 N.3   205  GLN205     -0.1245
     78  CA        17.6180   -2.8200   66.8020 C.3   205  GLN205      0.1566
     79  C         18.8730   -2.4370   66.0430 C.2   205  GLN205      0.2260
     80  O         19.4840   -1.4300   66.3580 O.2   205  GLN205     -0.2867
     81  CB        17.9510   -3.8360   67.8870 C.3   205  GLN205      0.0367
     82  CG        16.8150   -4.0450   68.8690 C.3   205  GLN205      0.0905
     83  CD        17.2130   -4.7910   70.1360 C.2   205  GLN205      0.2608
     84  OE1       18.3820   -4.9840   70.4120 O.2   205  GLN205     -0.2717
     85  NE2       16.1840   -5.2170   70.8670 N.am  205  GLN205     -0.0878
     86  N         21.9340   -3.8010   65.8300 N.3   207  HIS207     -0.1241
     87  CA        23.2640   -4.0200   66.4350 C.3   207  HIS207      0.1621
     88  C         24.0700   -4.8950   65.4610 C.2   207  HIS207      0.2264
     89  O         24.0430   -6.1400   65.5330 O.2   207  HIS207     -0.2867
     90  CB        23.1630   -4.7050   67.7840 C.3   207  HIS207      0.0745
     91  CG        22.5000   -3.8920   68.8590 C.ar  207  HIS207      0.0817
     92  ND1       23.0030   -2.6660   69.2520 N.ar  207  HIS207     -0.2268
     93  CD2       21.4060   -4.0980   69.5940 C.ar  207  HIS207      0.1154
     94  CE1       22.2410   -2.1670   70.2260 C.ar  207  HIS207      0.1986
     95  NE2       21.2830   -3.0370   70.4330 N.ar  207  HIS207     -0.2212
     96  N         18.3140    0.9840   67.5640 N.3   236  GLU236     -0.1245
     97  CA        19.4230    0.9890   68.5570 C.3   236  GLU236      0.1567
     98  C         20.7380    0.7990   67.7900 C.2   236  GLU236      0.2260
     99  O         21.5670   -0.0340   68.1630 O.2   236  GLU236     -0.2867
    100  CB        19.2590   -0.1690   69.5750 C.3   236  GLU236      0.0388
    101  CG        17.8780    0.0010   70.3050 C.3   236  GLU236      0.1160
    102  CD        17.5960   -1.2180   71.0990 C.2   236  GLU236      0.3649
    103  OE1       18.5810   -1.4850   72.0040 O.co2 236  GLU236     -0.2457
    104  OE2       16.5740   -1.9000   71.1250 O.co2 236  GLU236     -0.2457
    105  N         22.6400    4.0790   69.2350 N.3   266  TRP266     -0.1241
    106  CA        22.5020    3.7310   70.6390 C.3   266  TRP266      0.1605
    107  C         23.5690    4.3700   71.5070 C.2   266  TRP266      0.2264
    108  O         24.4030    3.7220   72.1260 O.2   266  TRP266     -0.2867
    109  CB        22.3800    2.2120   70.8160 C.3   266  TRP266      0.0550
    110  CG        21.7280    1.8860   72.1480 C.ar  266  TRP266      0.0003
    111  CD1       22.3160    1.2690   73.1950 C.ar  266  TRP266      0.0946
    112  CD2       20.3900    2.1670   72.5610 C.ar  266  TRP266      0.0152
    113  NE1       21.4460    1.1560   74.2540 N.ar  266  TRP266     -0.2442
    114  CE2       20.2370    1.6830   73.8770 C.ar  266  TRP266      0.0810
    115  CE3       19.2830    2.7980   71.9430 C.ar  266  TRP266      0.0012
    116  CZ2       19.0570    1.8140   74.5740 C.ar  266  TRP266      0.0191
    117  CZ3       18.1170    2.8970   72.6560 C.ar  266  TRP266      0.0001
    118  CH2       17.9940    2.4110   73.9640 C.ar  266  TRP266      0.0015
    119  N         27.1690    1.1730   75.5660 N.3   274  TRP274     -0.1241
    120  CA        27.0800   -0.0910   76.2750 C.3   274  TRP274      0.1605
    121  C         28.1160   -1.1110   75.8120 C.2   274  TRP274      0.2264
    122  O         28.3690   -2.1340   76.5120 O.2   274  TRP274     -0.2867
    123  CB        25.6580   -0.6750   76.1620 C.3   274  TRP274      0.0550
    124  CG        25.2870   -1.2530   74.8250 C.ar  274  TRP274      0.0003
    125  CD1       25.5020   -0.7150   73.5680 C.ar  274  TRP274      0.0946
    126  CD2       24.5820   -2.4630   74.6120 C.ar  274  TRP274      0.0152
    127  NE1       25.0170   -1.5690   72.6050 N.ar  274  TRP274     -0.2442
    128  CE2       24.4090   -2.6370   73.2250 C.ar  274  TRP274      0.0810
    129  CE3       24.0390   -3.4300   75.4860 C.ar  274  TRP274      0.0012
    130  CZ2       23.7610   -3.7530   72.6880 C.ar  274  TRP274      0.0191
    131  CZ3       23.3970   -4.5180   74.9560 C.ar  274  TRP274      0.0001
    132  CH2       23.2680   -4.6680   73.5640 C.ar  274  TRP274      0.0015
@<TRIPOS>BOND
     1    88    89    2
     2    88    87    1
     3    86    87    1
     4    77    78    1
     5    79    80    2
     6    79    78    1
     7    87    90    1
     8    78    81    1
     9    96    97    1
    10    90    91    1
    11    98    99    2
    12    98    97    1
    13    81    82    1
    14    97   100    1
    15    91    92   ar
    16    91    93   ar
    17    82    83    1
    18   105   106    1
    19    92    94   ar
    20   100   101    1
    21    93    95   ar
    22    83    84    2
    23    83    85   am
    24    94    95   ar
    25   101   102    1
    26   106   109    1
    27   106   107    1
    28   109   110    1
    29   102   104   ar
    30   102   103   ar
    31   107   108    2
    32   115   112   ar
    33   115   117   ar
    34   110   112   ar
    35   110   111   ar
    36    68    69    1
    37    68    62   am
    38    69    70    1
    39    69    72    1
    40    66    65    2
    41   112   114   ar
    42   127   128   ar
    43   127   125   ar
    44    70    71    2
    45   117   118   ar
    46   130   128   ar
    47   130   132   ar
    48    73    72    1
    49    73    74    1
    50    61    62    1
    51    61    60    1
    52    61    64    1
    53   111   113   ar
    54    62    63    2
    55   128   126   ar
    56    76    74   ar
    57    65    64    1
    58    65    67   am
    59    74    75   ar
    60   132   131   ar
    61   125   124   ar
    62   114   113   ar
    63   114   116   ar
    64   118   116   ar
    65    33    35   ar
    66    33    32   ar
    67    35    36   ar
    68   126   124   ar
    69   126   129   ar
    70   124   123    1
    71   131   129   ar
    72    32    31    1
    73    32    34   ar
    74    31    28    1
    75    36    34   ar
    76   119   120    1
    77    28    27    1
    78    28    29    1
    79   121   120    1
    80   121   122    2
    81   123   120    1
    82    45    43   ar
    83    45    46   ar
    84    43    42   ar
    85    48    46   ar
    86    48    50   ar
    87    46    44   ar
    88    29    30    2
    89     9     7   ar
    90     6     7    1
    91     6     5    1
    92    42    44   ar
    93    42    41    1
    94    50    49   ar
    95     2     1    1
    96     2     5    1
    97     2     3    1
    98     7     8   ar
    99    44    47   ar
   100    41    38    1
   101    38    37    1
   102    38    39    1
   103     4     3    2
   104    49    47   ar
   105     3    10   am
   106    26    25    1
   107    25    24    1
   108    39    40    2
   109    10    11    1
   110    24    23    1
   111    23    22    1
   112    58    57    2
   113    11    12    1
   114    11    14    1
   115    16    15    2
   116    17    15   am
   117    15    14    1
   118    18    19    1
   119    57    59   am
   120    57    56    1
   121    19    22    1
   122    19    20    1
   123    12    13    2
   124    56    55    1
   125    51    52    1
   126    55    52    1
   127    20    21    2
   128    52    53    1
   129    53    54    2
