@<TRIPOS>MOLECULE
tmp/1e12A01.pdb
 89 87 0 0 0
SMALL
GASTEIGER

@<TRIPOS>ATOM
      1  N         23.0340   28.4320   56.5410 N.3    71  GLY71      -0.1210
      2  CA        23.8040   27.8670   57.6430 C.3    71  GLY71       0.1956
      3  C         23.0420   26.8090   58.4030 C.2    71  GLY71       0.2612
      4  O         23.6510   25.9710   59.0370 O.2    71  GLY71      -0.2717
      5  N         21.7200   26.8660   58.3710 N.am   72  HIS72      -0.1961
      6  CA        20.9340   25.8570   59.0420 C.3    72  HIS72       0.1787
      7  C         21.0400   24.5780   58.2200 C.2    72  HIS72       0.2620
      8  O         21.2680   24.6050   56.9940 O.2    72  HIS72      -0.2715
      9  CB        19.4670   26.3500   59.1660 C.3    72  HIS72       0.0785
     10  CG        18.5860   25.4290   59.9470 C.ar   72  HIS72       0.0821
     11  ND1       18.0230   24.3060   59.3920 N.ar   72  HIS72      -0.2267
     12  CD2       18.1710   25.4620   61.2380 C.ar   72  HIS72       0.1154
     13  CE1       17.2890   23.6840   60.3050 C.ar   72  HIS72       0.1986
     14  NE2       17.3650   24.3650   61.4300 N.ar   72  HIS72      -0.2212
     15  N         20.9300   23.4340   58.8840 N.am   73  ALA73      -0.1977
     16  CA        20.9900   22.1680   58.1700 C.3    73  ALA73       0.1597
     17  C         19.9350   22.0960   57.0720 C.2    73  ALA73       0.2287
     18  O         20.1120   21.3770   56.0680 O.2    73  ALA73      -0.2864
     19  CB        20.8080   21.0140   59.1480 C.3    73  ALA73       0.0319
     20  N         20.5960   32.7290   60.9980 N.3   135  LEU135     -0.1245
     21  CA        20.7090   31.6100   61.9370 C.3   135  LEU135      0.1561
     22  C         21.1940   32.1320   63.3000 C.2   135  LEU135      0.2260
     23  O         20.7530   31.6750   64.3540 O.2   135  LEU135     -0.2867
     24  CB        21.6630   30.5650   61.3370 C.3   135  LEU135      0.0270
     25  CG        21.9010   29.3540   62.2310 C.3   135  LEU135      0.0019
     26  CD1       20.5650   28.6800   62.4770 C.3   135  LEU135      0.0001
     27  CD2       22.8910   28.3940   61.5630 C.3   135  LEU135      0.0001
     28  N         19.6360   31.3300   67.4210 N.3   139  TRP139     -0.1241
     29  CA        20.3470   30.7820   68.5890 C.3   139  TRP139      0.1605
     30  C         20.5310   31.7930   69.7050 C.2   139  TRP139      0.2264
     31  O         20.6090   31.4140   70.8750 O.2   139  TRP139     -0.2867
     32  CB        21.6770   30.1600   68.1470 C.3   139  TRP139      0.0550
     33  CG        21.4860   28.8280   67.4520 C.ar  139  TRP139      0.0003
     34  CD1       21.6840   28.5570   66.1120 C.ar  139  TRP139      0.0946
     35  CD2       21.0180   27.5870   68.0400 C.ar  139  TRP139      0.0152
     36  NE1       21.3620   27.2350   65.8440 N.ar  139  TRP139     -0.2442
     37  CE2       20.9660   26.6240   67.0030 C.ar  139  TRP139      0.0810
     38  CE3       20.6400   27.1950   69.3600 C.ar  139  TRP139      0.0012
     39  CZ2       20.5600   25.2990   67.2250 C.ar  139  TRP139      0.0191
     40  CZ3       20.2430   25.8840   69.5790 C.ar  139  TRP139      0.0001
     41  CH2       20.2050   24.9440   68.5150 C.ar  139  TRP139      0.0015
     42  N         17.3550   31.6070   71.5880 N.3   142  TYR142     -0.1227
     43  CA        17.3820   30.3140   72.3150 C.3   142  TYR142      0.1736
     44  C         18.2430   30.5000   73.5940 C.2   142  TYR142      0.2595
     45  O         17.8520   30.0750   74.6800 O.2   142  TYR142     -0.2718
     46  CB        18.0400   29.2370   71.4310 C.3   142  TYR142      0.0548
     47  CG        18.1460   27.8570   72.0940 C.ar  142  TYR142     -0.0200
     48  CD1       19.1950   27.5580   72.9520 C.ar  142  TYR142     -0.0009
     49  CD2       17.1900   26.8530   71.8330 C.ar  142  TYR142     -0.0009
     50  CE1       19.2880   26.2890   73.5430 C.ar  142  TYR142      0.0417
     51  CE2       17.2930   25.5670   72.4020 C.ar  142  TYR142      0.0417
     52  CZ        18.3590   25.3120   73.2630 C.ar  142  TYR142      0.1957
     53  OH        18.4880   24.0560   73.8230 O.3   142  TYR142     -0.2866
     54  N         19.4340   31.1060   73.4580 N.am  143  ALA143     -0.1980
     55  CA        20.2960   31.3440   74.6360 C.3   143  ALA143      0.1597
     56  C         19.6280   32.2440   75.6930 C.2   143  ALA143      0.2287
     57  O         19.6850   31.9760   76.8920 O.2   143  ALA143     -0.2864
     58  CB        21.6360   31.9810   74.1760 C.3   143  ALA143      0.0319
     59  N         17.1130   30.2500   77.5770 N.3   146  CYS146     -0.1235
     60  CA        17.8160   29.4240   78.5670 C.3   146  CYS146      0.1677
     61  C         18.1190   30.2300   79.8190 C.2   146  CYS146      0.2270
     62  O         18.0030   29.7110   80.9650 O.2   146  CYS146     -0.2867
     63  CB        19.1230   28.8920   77.9210 C.3   146  CYS146      0.0956
     64  SG        18.8530   27.5350   76.7530 S.3   146  CYS146     -0.0801
     65  N         16.2040   23.4740   65.6520 N.3   197  GLY197     -0.1210
     66  CA        17.5820   23.6550   66.0390 C.3   197  GLY197      0.1956
     67  C         18.6160   23.0770   65.1030 C.2   197  GLY197      0.2612
     68  O         18.7970   23.5400   63.9670 O.2   197  GLY197     -0.2717
     69  N         19.2870   22.0230   65.5770 N.am  198  LEU198     -0.1965
     70  CA        20.3350   21.3470   64.7930 C.3   198  LEU198      0.1728
     71  C         19.8420   20.4340   63.6850 C.2   198  LEU198      0.2616
     72  O         20.5960   20.0710   62.7960 O.2   198  LEU198     -0.2715
     73  CB        21.2290   20.5320   65.7410 C.3   198  LEU198      0.0311
     74  CG        22.0590   21.3310   66.7640 C.3   198  LEU198      0.0022
     75  CD1       22.7260   20.3510   67.7670 C.3   198  LEU198      0.0001
     76  CD2       23.0760   22.2170   66.0510 C.3   198  LEU198      0.0001
     77  N         18.5780   20.0400   63.7560 N.am  199  ALA199     -0.1963
     78  CA        17.9460   19.1570   62.7920 C.3   199  ALA199      0.1728
     79  C         18.5730   17.7620   62.7470 C.2   199  ALA199      0.2616
     80  O         18.6130   17.1420   61.6900 O.2   199  ALA199     -0.2715
     81  CB        17.9460   19.7890   61.3950 C.3   199  ALA199      0.0334
     82  N         19.0810   17.2830   63.8790 N.am  200  LEU200     -0.1977
     83  CA        19.6790   15.9410   63.9350 C.3   200  LEU200      0.1596
     84  C         18.5430   14.9610   63.6380 C.2   200  LEU200      0.2287
     85  O         18.7600   13.8840   63.0450 O.2   200  LEU200     -0.2864
     86  CB        20.3110   15.6710   65.3160 C.3   200  LEU200      0.0297
     87  CG        21.5160   16.5240   65.7490 C.3   200  LEU200      0.0022
     88  CD1       21.9140   16.1660   67.1830 C.3   200  LEU200      0.0001
     89  CD2       22.6860   16.3450   64.7620 C.3   200  LEU200      0.0001
@<TRIPOS>BOND
     1    18    17    2
     2     1     2    1
     3     8     7    2
     4    17    16    1
     5     2     3    1
     6    16    15    1
     7    16    19    1
     8     7    15   am
     9     7     6    1
    10     5     3   am
    11     5     6    1
    12     3     4    2
    13     6     9    1
    14     9    10    1
    15    11    10   ar
    16    11    13   ar
    17    10    12   ar
    18    13    14   ar
    19    20    21    1
    20    12    14   ar
    21    24    21    1
    22    24    25    1
    23    81    78    1
    24    27    25    1
    25    80    79    2
    26    21    22    1
    27    25    26    1
    28    79    78    1
    29    79    82   am
    30    78    77    1
    31    72    71    2
    32    85    84    2
    33    22    23    2
    34    84    83    1
    35    71    77   am
    36    71    70    1
    37    82    83    1
    38    83    86    1
    39    68    67    2
    40    89    87    1
    41    70    69    1
    42    70    73    1
    43    67    69   am
    44    67    66    1
    45    86    87    1
    46    65    66    1
    47    73    74    1
    48    87    88    1
    49    36    34   ar
    50    36    37   ar
    51    76    74    1
    52    34    33   ar
    53    74    75    1
    54    37    39   ar
    55    37    35   ar
    56    39    41   ar
    57    28    29    1
    58    33    35   ar
    59    33    32    1
    60    35    38   ar
    61    32    29    1
    62    41    40   ar
    63    29    30    1
    64    38    40   ar
    65    30    31    2
    66    46    47    1
    67    46    43    1
    68    42    43    1
    69    49    47   ar
    70    49    51   ar
    71    47    48   ar
    72    43    44    1
    73    51    52   ar
    74    48    50   ar
    75    52    50   ar
    76    52    53    1
    77    54    44   am
    78    54    55    1
    79    44    45    2
    80    58    55    1
    81    55    56    1
    82    56    57    2
    83    64    63    1
    84    59    60    1
    85    63    60    1
    86    60    61    1
    87    61    62    2
