@<TRIPOS>MOLECULE
tmp/1e19B00.pdb
 152 148 0 0 0
SMALL
GASTEIGER

@<TRIPOS>ATOM
      1  N         16.8530   30.1610   18.2430 N.3     9  GLY9       -0.1210
      2  CA        15.6370   30.8360   17.7440 C.3     9  GLY9        0.1956
      3  C         14.3810   30.0770   18.1800 C.2     9  GLY9        0.2612
      4  O         14.4000   29.2320   19.1200 O.2     9  GLY9       -0.2717
      5  N         13.2760   30.4190   17.5340 N.am   10  GLY10      -0.1942
      6  CA        11.9830   29.8600   17.9470 C.3    10  GLY10       0.2014
      7  C         12.0130   28.3110   18.0550 C.2    10  GLY10       0.2638
      8  O         11.4320   27.7790   18.9840 O.2    10  GLY10      -0.2714
      9  N         12.5870   27.7170   17.0170 N.am   11  ASN11      -0.1972
     10  CA        12.5400   26.2470   16.9100 C.3    11  ASN11       0.1688
     11  C         13.3060   25.5060   17.9440 C.2    11  ASN11       0.2292
     12  O         13.2540   24.2490   18.1110 O.2    11  ASN11      -0.2864
     13  CB        12.8250   25.8070   15.4410 C.3    11  ASN11       0.1181
     14  CG        14.2800   25.9110   15.1090 C.2    11  ASN11       0.2629
     15  OD1       15.0900   26.6160   15.7630 O.2    11  ASN11      -0.2716
     16  ND2       14.6970   25.2500   13.9610 N.am   11  ASN11      -0.0877
     17  N         16.9860   39.6480   19.0780 N.3   214  LYS214     -0.1245
     18  CA        17.8820   38.7720   19.8120 C.3   214  LYS214      0.1561
     19  C         19.2000   38.4000   19.0550 C.2   214  LYS214      0.2260
     20  O         20.1780   38.1280   19.7010 O.2   214  LYS214     -0.2867
     21  CB        17.1560   37.4740   20.2500 C.3   214  LYS214      0.0271
     22  CG        16.7070   36.5380   19.1200 C.3   214  LYS214      0.0035
     23  CD        17.7770   35.5670   18.6790 C.3   214  LYS214      0.0206
     24  CE        17.1290   34.6890   17.5980 C.3   214  LYS214      0.1093
     25  NZ        18.2510   33.7980   17.0810 N.3   214  LYS214     -0.1314
     26  N         21.1910   29.8530   14.8240 N.3   233  LEU233     -0.1231
     27  CA        20.4670   28.6530   14.4650 C.3   233  LEU233      0.1693
     28  C         19.0080   28.8970   14.3310 C.2   233  LEU233      0.2593
     29  O         18.3400   29.4310   15.2690 O.2   233  LEU233     -0.2718
     30  CB        20.6730   27.5560   15.5340 C.3   233  LEU233      0.0284
     31  CG        22.1130   27.2100   15.7640 C.3   233  LEU233      0.0019
     32  CD1       22.2020   26.0720   16.8260 C.3   233  LEU233      0.0001
     33  CD2       22.7570   26.5960   14.4860 C.3   233  LEU233      0.0001
     34  N         18.5330   28.6070   13.1280 N.am  234  THR234     -0.1939
     35  CA        17.1440   28.9240   12.8050 C.3   234  THR234      0.2028
     36  C         16.4110   27.7470   12.1310 C.2   234  THR234      0.2642
     37  O         16.9100   26.5930   12.3490 O.2   234  THR234     -0.2714
     38  CB        17.0170   30.2880   12.0640 C.3   234  THR234      0.1808
     39  OG1       15.7240   30.7280   11.8400 O.3   234  THR234     -0.2208
     40  CG2       17.7950   30.1770   10.7030 C.3   234  THR234      0.0379
     41  N         15.3140   27.9640   11.4770 N.am  235  ASP235     -0.1957
     42  CA        14.4920   26.9120   10.8910 C.3   235  ASP235      0.1840
     43  C         14.6300   26.7810    9.3550 C.2   235  ASP235      0.2621
     44  O         13.8720   26.0160    8.7260 O.2   235  ASP235     -0.2715
     45  CB        13.0690   27.0590   11.3590 C.3   235  ASP235      0.1450
     46  CG        12.3590   28.2750   10.7750 C.2   235  ASP235      0.3671
     47  OD1       13.0560   29.0500   10.0360 O.co2 235  ASP235     -0.2456
     48  OD2       11.1850   28.4690   11.0410 O.co2 235  ASP235     -0.2456
     49  N         15.6410   27.4560    8.8430 N.am  236  VAL236     -0.1977
     50  CA        16.0880   27.2670    7.4330 C.3   236  VAL236      0.1596
     51  C         17.5890   27.1810    7.5120 C.2   236  VAL236      0.2287
     52  O         18.2820   27.6150    8.4510 O.2   236  VAL236     -0.2864
     53  CB        15.6870   28.4010    6.4450 C.3   236  VAL236      0.0276
     54  CG1       14.2190   28.4170    6.2240 C.3   236  VAL236      0.0022
     55  CG2       16.2390   29.7560    6.9520 C.3   236  VAL236      0.0022
     56  N         20.3380   28.6500    6.3840 N.3   238  GLY238     -0.1210
     57  CA        21.1790   29.7790    5.9350 C.3   238  GLY238      0.1956
     58  C         20.1990   30.9230    5.5780 C.2   238  GLY238      0.2612
     59  O         18.9900   30.8990    5.6500 O.2   238  GLY238     -0.2717
     60  N         20.8070   31.7310    4.6490 N.am  239  ALA239     -0.1965
     61  CA        20.1930   32.9120    3.9970 C.3   239  ALA239      0.1728
     62  C         20.1780   32.5920    2.4750 C.2   239  ALA239      0.2616
     63  O         21.2390   32.1960    1.9680 O.2   239  ALA239     -0.2715
     64  CB        20.9770   34.1590    4.2640 C.3   239  ALA239      0.0334
     65  N         19.1070   32.9650    1.8780 N.am  240  ALA240     -0.1977
     66  CA        18.9200   32.7060    0.4070 C.3   240  ALA240      0.1597
     67  C         18.6880   34.0560   -0.2940 C.2   240  ALA240      0.2287
     68  O         18.0510   35.0270    0.1150 O.2   240  ALA240     -0.2864
     69  CB        17.6290   31.9250    0.2420 C.3   240  ALA240      0.0319
     70  N         14.5890   34.5490   -2.1810 N.3   243  TYR243     -0.1241
     71  CA        13.8570   33.5770   -1.3600 C.3   243  TYR243      0.1605
     72  C         12.4330   33.3810   -1.8080 C.2   243  TYR243      0.2264
     73  O         11.6190   34.2990   -1.9610 O.2   243  TYR243     -0.2867
     74  CB        13.9350   34.0760    0.1210 C.3   243  TYR243      0.0534
     75  CG        13.1370   33.2070    1.1150 C.ar  243  TYR243     -0.0201
     76  CD1       13.6320   31.9970    1.5290 C.ar  243  TYR243     -0.0009
     77  CD2       11.9450   33.6680    1.5990 C.ar  243  TYR243     -0.0009
     78  CE1       12.8630   31.2170    2.3940 C.ar  243  TYR243      0.0417
     79  CE2       11.1570   32.8910    2.4680 C.ar  243  TYR243      0.0417
     80  CZ        11.6550   31.6740    2.8330 C.ar  243  TYR243      0.1957
     81  OH        10.9330   30.8800    3.7160 O.3   243  TYR243     -0.2866
     82  N         20.4570   29.3800   -2.1830 N.3   250  TRP250     -0.1241
     83  CA        20.9790   29.3790   -0.8070 C.3   250  TRP250      0.1605
     84  C         22.4240   29.7240   -0.7520 C.2   250  TRP250      0.2264
     85  O         23.3720   29.1260   -1.3270 O.2   250  TRP250     -0.2867
     86  CB        20.6910   28.0230   -0.0710 C.3   250  TRP250      0.0550
     87  CG        19.2140   27.8470    0.0050 C.ar  250  TRP250      0.0003
     88  CD1       18.3790   27.3390   -0.8970 C.ar  250  TRP250      0.0946
     89  CD2       18.3770   28.2970    1.0710 C.ar  250  TRP250      0.0152
     90  NE1       17.0710   27.4300   -0.5360 N.ar  250  TRP250     -0.2442
     91  CE2       17.0520   28.0670    0.7380 C.ar  250  TRP250      0.0810
     92  CE3       18.6050   28.9290    2.3350 C.ar  250  TRP250      0.0012
     93  CZ2       15.9230   28.3730    1.5130 C.ar  250  TRP250      0.0191
     94  CZ3       17.4750   29.2660    3.1040 C.ar  250  TRP250      0.0001
     95  CH2       16.1900   28.9970    2.7420 C.ar  250  TRP250      0.0015
     96  N         17.2570   41.0970   -0.2690 N.3   267  HIS267     -0.1226
     97  CA        16.8760   39.6950   -0.2030 C.3   267  HIS267      0.1752
     98  C         16.4570   39.1250    1.1820 C.2   267  HIS267      0.2596
     99  O         15.5890   38.2360    1.1900 O.2   267  HIS267     -0.2718
    100  CB        18.1430   38.8550   -0.5730 C.3   267  HIS267      0.0759
    101  CG        18.5400   39.0470   -2.0250 C.ar  267  HIS267      0.0818
    102  ND1       17.8510   38.4940   -3.0830 N.ar  267  HIS267     -0.2268
    103  CD2       19.5420   39.8350   -2.4620 C.ar  267  HIS267      0.1154
    104  CE1       18.4870   38.9500   -4.1810 C.ar  267  HIS267      0.1986
    105  NE2       19.4970   39.7420   -3.8680 N.ar  267  HIS267     -0.2212
    106  N         16.8910   39.8050    2.2080 N.am  268  PHE268     -0.1962
    107  CA        16.7140   39.2440    3.5940 C.3   268  PHE268      0.1771
    108  C         15.5890   40.0030    4.2990 C.2   268  PHE268      0.2619
    109  O         15.8060   41.1840    4.6530 O.2   268  PHE268     -0.2715
    110  CB        18.0510   39.2930    4.3060 C.3   268  PHE268      0.0574
    111  CG        19.2080   38.7760    3.4160 C.ar  268  PHE268     -0.0200
    112  CD1       19.1240   37.5070    2.8890 C.ar  268  PHE268     -0.0042
    113  CD2       20.2210   39.6610    3.1150 C.ar  268  PHE268     -0.0042
    114  CE1       20.1910   37.0340    2.0860 C.ar  268  PHE268     -0.0003
    115  CE2       21.2660   39.1940    2.3130 C.ar  268  PHE268     -0.0003
    116  CZ        21.2280   37.9050    1.7780 C.ar  268  PHE268     -0.0000
    117  N         14.4390   39.4240    4.4360 N.am  269  LYS269     -0.1977
    118  CA        13.2390   40.1460    4.8690 C.3   269  LYS269      0.1596
    119  C         13.4070   40.7850    6.2260 C.2   269  LYS269      0.2287
    120  O         13.9150   40.1790    7.1860 O.2   269  LYS269     -0.2864
    121  CB        12.0450   39.1990    4.8910 C.3   269  LYS269      0.0298
    122  CG        10.7150   39.8790    4.7310 C.3   269  LYS269      0.0038
    123  CD         9.5770   38.8600    4.8300 C.3   269  LYS269      0.0206
    124  CE         8.2860   39.5900    5.2240 C.3   269  LYS269      0.1093
    125  NZ         7.0900   38.8720    4.7010 N.3   269  LYS269     -0.1314
    126  N         11.1830   41.2230    8.6370 N.3   271  GLY271     -0.1210
    127  CA        10.8740   40.7200   10.0900 C.3   271  GLY271      0.1956
    128  C         11.6240   39.4780   10.6130 C.2   271  GLY271      0.2613
    129  O         11.3560   38.8870   11.6990 O.2   271  GLY271     -0.2717
    130  N         12.6840   39.0510    9.9310 N.am  272  SER272     -0.1938
    131  CA        13.1510   37.6450   10.0110 C.3   272  SER272      0.2055
    132  C         14.6310   37.4900    9.6870 C.2   272  SER272      0.2642
    133  O         15.4760   37.4850   10.5360 O.2   272  SER272     -0.2714
    134  CB        12.2730   36.6960    9.2310 C.3   272  SER272      0.2130
    135  OG        12.1660   37.1520    7.8470 O.3   272  SER272     -0.2179
    136  N         14.9180   37.2880    8.3760 N.am  273  MET273     -0.1976
    137  CA        16.3190   37.0290    8.0150 C.3   273  MET273      0.1605
    138  C         17.1740   38.2530    7.9380 C.2   273  MET273      0.2287
    139  O         18.3630   38.1560    8.0760 O.2   273  MET273     -0.2864
    140  CB        16.3770   36.1460    6.7320 C.3   273  MET273      0.0413
    141  CG        17.7900   35.7370    6.3370 C.3   273  MET273      0.0598
    142  SD        18.7070   34.6840    7.4700 S.3   273  MET273     -0.1393
    143  CE        17.4970   33.3190    7.5800 C.3   273  MET273      0.0692
    144  N         19.2910   38.8130   10.9890 N.3   276  LYS276     -0.1245
    145  CA        20.3280   37.7780   11.2030 C.3   276  LYS276      0.1561
    146  C         21.4990   38.0540   10.2680 C.2   276  LYS276      0.2260
    147  O         22.6360   37.9730   10.6540 O.2   276  LYS276     -0.2867
    148  CB        19.6510   36.4410   10.7400 C.3   276  LYS276      0.0271
    149  CG        18.4550   36.0690   11.6170 C.3   276  LYS276      0.0035
    150  CD        18.0080   34.6830   11.3220 C.3   276  LYS276      0.0206
    151  CE        16.7740   34.2990   12.0180 C.3   276  LYS276      0.1093
    152  NZ        16.7690   34.5290   13.4740 N.3   276  LYS276     -0.1314
@<TRIPOS>BOND
     1   104   105   ar
     2   104   102   ar
     3   105   103   ar
     4   102   101   ar
     5   103   101   ar
     6    82    83    1
     7    70    71    1
     8   101   100    1
     9    73    72    2
    10    72    71    1
    11    71    74    1
    12    85    84    2
    13    88    90   ar
    14    88    87   ar
    15    83    84    1
    16    83    86    1
    17   100    97    1
    18    90    91   ar
    19    67    68    2
    20    67    66    1
    21    96    97    1
    22    97    98    1
    23    86    87    1
    24    87    89   ar
    25    74    75    1
    26    69    66    1
    27    66    65    1
    28    91    89   ar
    29    91    93   ar
    30    89    92   ar
    31    75    76   ar
    32    75    77   ar
    33    98    99    2
    34    98   106   am
    35    93    95   ar
    36    76    78   ar
    37    77    79   ar
    38   116   114   ar
    39   116   115   ar
    40    65    62   am
    41    63    62    2
    42   114   112   ar
    43   106   107    1
    44   115   113   ar
    45    92    94   ar
    46    78    80   ar
    47    79    80   ar
    48    62    61    1
    49    95    94   ar
    50    80    81    1
    51   112   111   ar
    52   113   111   ar
    53   111   110    1
    54   107   108    1
    55   107   110    1
    56    61    64    1
    57    61    60    1
    58   108   117   am
    59   108   109    2
    60   117   118    1
    61    60    58   am
    62   125   124    1
    63   122   123    1
    64   122   121    1
    65   123   124    1
    66   118   121    1
    67   118   119    1
    68    58    59    2
    69    58    57    1
    70    57    56    1
    71    54    53    1
    72   119   120    2
    73   141   140    1
    74   141   142    1
    75    53    55    1
    76    53    50    1
    77   140   137    1
    78    50    51    1
    79    50    49    1
    80   142   143    1
    81    51    52    2
    82   135   134    1
    83   138   137    1
    84   138   139    2
    85   137   136    1
    86   136   132   am
    87   126   127    1
    88    44    43    2
    89    49    43   am
    90   134   131    1
    91    43    42    1
    92   132   131    1
    93   132   133    2
    94   130   131    1
    95   130   128   am
    96    47    46   ar
    97   127   128    1
    98   146   147    2
    99   146   145    1
   100   128   129    2
   101    40    38    1
   102   148   145    1
   103   148   149    1
   104    46    48   ar
   105    46    45    1
   106    42    45    1
   107    42    41    1
   108   144   145    1
   109   150   149    1
   110   150   151    1
   111    41    36   am
   112    39    38    1
   113   151   152    1
   114    38    35    1
   115    36    37    2
   116    36    35    1
   117    35    34    1
   118    34    28   am
   119    16    14   am
   120    28    27    1
   121    28    29    2
   122    27    26    1
   123    27    30    1
   124    33    31    1
   125    14    13    1
   126    14    15    2
   127    13    10    1
   128    30    31    1
   129    31    32    1
   130    10     9    1
   131    10    11    1
   132     9     7   am
   133    25    24    1
   134     5     6    1
   135     5     3   am
   136    24    23    1
   137     2     3    1
   138     2     1    1
   139    11    12    2
   140     6     7    1
   141     7     8    2
   142     3     4    2
   143    23    22    1
   144    19    20    2
   145    19    18    1
   146    17    18    1
   147    22    21    1
   148    18    21    1
