@<TRIPOS>MOLECULE
tmp/1e1fB00.pdb
 196 195 0 0 0
SMALL
GASTEIGER

@<TRIPOS>ATOM
      1  N         23.0760  -45.7240  121.7770 N.3    27  GLN27      -0.1245
      2  CA        24.3260  -45.0560  122.1330 C.3    27  GLN27       0.1566
      3  C         24.9730  -45.4050  123.4750 C.2    27  GLN27       0.2260
      4  O         26.2030  -45.4180  123.5790 O.2    27  GLN27      -0.2867
      5  CB        24.1530  -43.5430  122.0240 C.3    27  GLN27       0.0367
      6  CG        24.0210  -43.0760  120.5880 C.3    27  GLN27       0.0905
      7  CD        23.9140  -41.5750  120.4580 C.2    27  GLN27       0.2608
      8  OE1       22.8940  -40.9780  120.8030 O.2    27  GLN27      -0.2717
      9  NE2       24.9750  -40.9520  119.9630 N.am   27  GLN27      -0.0878
     10  N         14.5020  -43.5480  118.9490 N.3   131  HIS131     -0.1226
     11  CA        15.7190  -42.8250  118.6440 C.3   131  HIS131      0.1752
     12  C         16.5840  -43.5790  117.6290 C.2   131  HIS131      0.2596
     13  O         17.7240  -43.9420  117.9140 O.2   131  HIS131     -0.2718
     14  CB        16.4940  -42.5660  119.9360 C.3   131  HIS131      0.0759
     15  CG        17.4850  -41.4510  119.8310 C.ar  131  HIS131      0.0818
     16  ND1       17.4760  -40.3670  120.6830 N.ar  131  HIS131     -0.2268
     17  CD2       18.5220  -41.2560  118.9830 C.ar  131  HIS131      0.1154
     18  CE1       18.4650  -39.5540  120.3660 C.ar  131  HIS131      0.1986
     19  NE2       19.1160  -40.0690  119.3380 N.ar  131  HIS131     -0.2212
     20  N         16.0090  -43.8310  116.4530 N.am  132  TRP132     -0.1976
     21  CA        16.6900  -44.5050  115.3370 C.3   132  TRP132      0.1640
     22  C         16.8790  -46.0120  115.4250 C.2   132  TRP132      0.2290
     23  O         17.3470  -46.6240  114.4650 O.2   132  TRP132     -0.2864
     24  CB        18.0620  -43.8710  115.0870 C.3   132  TRP132      0.0576
     25  CG        18.0360  -42.3760  115.0460 C.ar  132  TRP132      0.0006
     26  CD1       16.9350  -41.5790  114.9510 C.ar  132  TRP132      0.0946
     27  CD2       19.1650  -41.4970  115.0750 C.ar  132  TRP132      0.0152
     28  NE1       17.3040  -40.2580  114.9180 N.ar  132  TRP132     -0.2442
     29  CE2       18.6690  -40.1770  114.9960 C.ar  132  TRP132      0.0810
     30  CE3       20.5500  -41.6960  115.1600 C.ar  132  TRP132      0.0012
     31  CZ2       19.5080  -39.0580  115.0030 C.ar  132  TRP132      0.0191
     32  CZ3       21.3840  -40.5840  115.1680 C.ar  132  TRP132      0.0001
     33  CH2       20.8600  -39.2820  115.0910 C.ar  132  TRP132      0.0015
     34  N         14.7880  -36.3140  116.0040 N.3   180  GLU180     -0.1245
     35  CA        15.4100  -35.9020  114.7490 C.3   180  GLU180      0.1567
     36  C         14.9430  -36.6530  113.5130 C.2   180  GLU180      0.2260
     37  O         15.6950  -37.4110  112.9160 O.2   180  GLU180     -0.2867
     38  CB        16.9210  -36.0350  114.8560 C.3   180  GLU180      0.0388
     39  CG        17.5160  -35.1980  115.9530 C.3   180  GLU180      0.1160
     40  CD        19.0230  -35.2570  115.9510 C.2   180  GLU180      0.3649
     41  OE1       19.6020  -35.4570  114.8580 O.co2 180  GLU180     -0.2457
     42  OE2       19.6220  -35.0880  117.0350 O.co2 180  GLU180     -0.2457
     43  N         17.3010  -35.7570  110.4640 N.3   183  THR183     -0.1218
     44  CA        18.6150  -36.3940  110.4710 C.3   183  THR183      0.1862
     45  C         18.4790  -37.8720  110.1160 C.2   183  THR183      0.2287
     46  O         19.2170  -38.3960  109.2870 O.2   183  THR183     -0.2866
     47  CB        19.3050  -36.2750  111.8510 C.3   183  THR183      0.1770
     48  OG1       19.4840  -34.8960  112.1860 O.3   183  THR183     -0.2211
     49  CG2       20.6780  -36.9360  111.8190 C.3   183  THR183      0.0375
     50  N         19.9260  -39.0440  106.5480 N.3   187  PHE187     -0.1241
     51  CA        21.1530  -39.8180  106.6900 C.3   187  PHE187      0.1605
     52  C         21.0110  -41.3200  106.4550 C.2   187  PHE187      0.2264
     53  O         21.9690  -41.9690  106.0420 O.2   187  PHE187     -0.2867
     54  CB        21.7740  -39.5890  108.0690 C.3   187  PHE187      0.0534
     55  CG        22.4960  -38.2770  108.2050 C.ar  187  PHE187     -0.0203
     56  CD1       22.3050  -37.2540  107.2790 C.ar  187  PHE187     -0.0042
     57  CD2       23.3700  -38.0630  109.2650 C.ar  187  PHE187     -0.0042
     58  CE1       22.9780  -36.0320  107.4090 C.ar  187  PHE187     -0.0003
     59  CE2       24.0470  -36.8490  109.4060 C.ar  187  PHE187     -0.0003
     60  CZ        23.8510  -35.8310  108.4750 C.ar  187  PHE187     -0.0000
     61  N         23.7630  -43.4660  107.5680 N.3   194  PHE194     -0.1241
     62  CA        23.1800  -44.0630  108.7740 C.3   194  PHE194      0.1605
     63  C         22.6040  -45.4660  108.6200 C.2   194  PHE194      0.2264
     64  O         22.4610  -45.9880  107.5160 O.2   194  PHE194     -0.2867
     65  CB        22.0670  -43.1640  109.3230 C.3   194  PHE194      0.0534
     66  CG        22.5310  -42.1500  110.3190 C.ar  194  PHE194     -0.0203
     67  CD1       23.8840  -41.9090  110.5220 C.ar  194  PHE194     -0.0042
     68  CD2       21.6040  -41.4270  111.0580 C.ar  194  PHE194     -0.0042
     69  CE1       24.3060  -40.9570  111.4580 C.ar  194  PHE194     -0.0003
     70  CE2       22.0060  -40.4790  111.9870 C.ar  194  PHE194     -0.0003
     71  CZ        23.3610  -40.2410  112.1920 C.ar  194  PHE194     -0.0000
     72  N         15.7290  -31.8440  114.8020 N.3   250  ASP250     -0.1239
     73  CA        17.1350  -31.4940  114.6850 C.3   250  ASP250      0.1674
     74  C         17.0720  -30.2350  113.8250 C.2   250  ASP250      0.2266
     75  O         16.2580  -30.1600  112.9060 O.2   250  ASP250     -0.2867
     76  CB        17.9100  -32.6000  113.9650 C.3   250  ASP250      0.1410
     77  CG        17.3320  -32.9250  112.6020 C.2   250  ASP250      0.3668
     78  OD1       17.6760  -32.2230  111.6250 O.co2 250  ASP250     -0.2456
     79  OD2       16.5230  -33.8810  112.5090 O.co2 250  ASP250     -0.2456
     80  N         19.6160  -26.7030  112.3600 N.3   252  MET252     -0.1245
     81  CA        20.7540  -25.7960  112.3500 C.3   252  MET252      0.1570
     82  C         20.2030  -24.4180  111.9810 C.2   252  MET252      0.2261
     83  O         19.2740  -24.3070  111.1790 O.2   252  MET252     -0.2867
     84  CB        21.7820  -26.2110  111.2930 C.3   252  MET252      0.0387
     85  CG        22.3370  -27.6080  111.4230 C.3   252  MET252      0.0595
     86  SD        23.5680  -27.9310  110.1320 S.3   252  MET252     -0.1393
     87  CE        24.5380  -29.1840  110.9160 C.3   252  MET252      0.0692
     88  N         22.7570  -27.3610  117.5820 N.3   322  TYR322     -0.1241
     89  CA        24.2050  -27.4750  117.6710 C.3   322  TYR322      0.1605
     90  C         24.9760  -26.3680  116.9430 C.2   322  TYR322      0.2264
     91  O         25.9870  -25.8810  117.4480 O.2   322  TYR322     -0.2867
     92  CB        24.6760  -28.8200  117.1200 C.3   322  TYR322      0.0534
     93  CG        24.2610  -30.0080  117.9390 C.ar  322  TYR322     -0.0201
     94  CD1       23.0270  -30.6150  117.7470 C.ar  322  TYR322     -0.0009
     95  CD2       25.1120  -30.5310  118.9100 C.ar  322  TYR322     -0.0009
     96  CE1       22.6490  -31.7170  118.4980 C.ar  322  TYR322      0.0417
     97  CE2       24.7430  -31.6330  119.6690 C.ar  322  TYR322      0.0417
     98  CZ        23.5120  -32.2210  119.4570 C.ar  322  TYR322      0.1957
     99  OH        23.1520  -33.3210  120.2010 O.3   322  TYR322     -0.2866
    100  N         31.8830  -30.7750  112.0700 N.3   367  TRP367     -0.1241
    101  CA        30.7330  -29.9360  111.7630 C.3   367  TRP367      0.1605
    102  C         30.1910  -28.9540  112.7790 C.2   367  TRP367      0.2264
    103  O         29.3950  -28.0910  112.4130 O.2   367  TRP367     -0.2867
    104  CB        29.5770  -30.8240  111.3370 C.3   367  TRP367      0.0550
    105  CG        29.2120  -31.7770  112.4030 C.ar  367  TRP367      0.0003
    106  CD1       29.9130  -32.8840  112.7900 C.ar  367  TRP367      0.0946
    107  CD2       28.0850  -31.6830  113.2790 C.ar  367  TRP367      0.0152
    108  NE1       29.2920  -33.4840  113.8540 N.ar  367  TRP367     -0.2442
    109  CE2       28.1660  -32.7700  114.1770 C.ar  367  TRP367      0.0810
    110  CE3       27.0140  -30.7860  113.3940 C.ar  367  TRP367      0.0012
    111  CZ2       27.2140  -32.9880  115.1800 C.ar  367  TRP367      0.0191
    112  CZ3       26.0630  -31.0050  114.3940 C.ar  367  TRP367      0.0001
    113  CH2       26.1730  -32.0980  115.2720 C.ar  367  TRP367      0.0015
    114  N         18.6850  -31.0870  123.1850 N.3   395  GLU395     -0.1245
    115  CA        20.0610  -31.4440  122.8690 C.3   395  GLU395      0.1567
    116  C         20.8860  -30.2070  122.5840 C.2   395  GLU395      0.2260
    117  O         20.4170  -29.2720  121.9340 O.2   395  GLU395     -0.2867
    118  CB        20.1380  -32.3750  121.6520 C.3   395  GLU395      0.0388
    119  CG        19.6640  -33.7960  121.9050 C.3   395  GLU395      0.1160
    120  CD        20.0400  -34.7360  120.7860 C.2   395  GLU395      0.3649
    121  OE1       20.9230  -34.3700  119.9760 O.co2 395  GLU395     -0.2457
    122  OE2       19.4580  -35.8430  120.7190 O.co2 395  GLU395     -0.2457
    123  N         23.5360  -32.2200  125.7780 N.3   446  TRP446     -0.1241
    124  CA        23.5850  -33.4960  125.0850 C.3   446  TRP446      0.1605
    125  C         24.7810  -34.2780  125.5050 C.2   446  TRP446      0.2264
    126  O         25.9130  -33.8190  125.3810 O.2   446  TRP446     -0.2867
    127  CB        23.6200  -33.3790  123.5670 C.3   446  TRP446      0.0550
    128  CG        23.9440  -34.7210  122.9340 C.ar  446  TRP446      0.0003
    129  CD1       25.0910  -35.0650  122.2700 C.ar  446  TRP446      0.0946
    130  CD2       23.1350  -35.9050  122.9660 C.ar  446  TRP446      0.0152
    131  NE1       25.0450  -36.3860  121.8890 N.ar  446  TRP446     -0.2442
    132  CE2       23.8550  -36.9250  122.3010 C.ar  446  TRP446      0.0810
    133  CE3       21.8690  -36.2060  123.4940 C.ar  446  TRP446      0.0012
    134  CZ2       23.3510  -38.2230  122.1490 C.ar  446  TRP446      0.0191
    135  CZ3       21.3680  -37.5020  123.3410 C.ar  446  TRP446      0.0001
    136  CH2       22.1110  -38.4900  122.6720 C.ar  446  TRP446      0.0015
    137  N         29.1310  -42.7290  118.8860 N.3   453  GLU453     -0.1231
    138  CA        28.6280  -41.6520  118.0480 C.3   453  GLU453      0.1699
    139  C         28.3020  -42.0490  116.6170 C.2   453  GLU453      0.2592
    140  O         28.8340  -41.4930  115.6600 O.2   453  GLU453     -0.2718
    141  CB        29.6010  -40.4800  118.0730 C.3   453  GLU453      0.0402
    142  CG        29.6290  -39.8040  119.4280 C.3   453  GLU453      0.1161
    143  CD        28.2980  -39.1610  119.7950 C.2   453  GLU453      0.3649
    144  OE1       27.4400  -38.9840  118.9020 O.co2 453  GLU453     -0.2457
    145  OE2       28.1220  -38.8170  120.9820 O.co2 453  GLU453     -0.2457
    146  N         27.4060  -43.0180  116.4930 N.am  454  TRP454     -0.1962
    147  CA        26.9460  -43.5050  115.2050 C.3   454  TRP454      0.1771
    148  C         28.0860  -43.7580  114.2150 C.2   454  TRP454      0.2620
    149  O         29.0480  -44.4390  114.5630 O.2   454  TRP454     -0.2715
    150  CB        25.8920  -42.5350  114.6560 C.3   454  TRP454      0.0590
    151  CG        24.7950  -42.2440  115.6840 C.ar  454  TRP454      0.0006
    152  CD1       24.6130  -41.0820  116.3880 C.ar  454  TRP454      0.0946
    153  CD2       23.7870  -43.1540  116.1620 C.ar  454  TRP454      0.0152
    154  NE1       23.5580  -41.2110  117.2730 N.ar  454  TRP454     -0.2442
    155  CE2       23.0360  -42.4700  117.1550 C.ar  454  TRP454      0.0810
    156  CE3       23.4450  -44.4820  115.8500 C.ar  454  TRP454      0.0012
    157  CZ2       21.9670  -43.0670  117.8360 C.ar  454  TRP454      0.0191
    158  CZ3       22.3770  -45.0780  116.5280 C.ar  454  TRP454      0.0001
    159  CH2       21.6510  -44.3660  117.5100 C.ar  454  TRP454      0.0015
    160  N         28.0200  -43.2230  113.0000 N.am  455  PHE455     -0.1960
    161  CA        29.0880  -43.5270  112.0430 C.3   455  PHE455      0.1771
    162  C         30.4690  -43.0440  112.4470 C.2   455  PHE455      0.2619
    163  O         31.4640  -43.3850  111.8060 O.2   455  PHE455     -0.2715
    164  CB        28.7520  -43.0200  110.6260 C.3   455  PHE455      0.0574
    165  CG        28.8330  -41.5320  110.4610 C.ar  455  PHE455     -0.0200
    166  CD1       30.0590  -40.8990  110.3340 C.ar  455  PHE455     -0.0042
    167  CD2       27.6800  -40.7630  110.4180 C.ar  455  PHE455     -0.0042
    168  CE1       30.1350  -39.5190  110.1650 C.ar  455  PHE455     -0.0003
    169  CE2       27.7490  -39.3820  110.2490 C.ar  455  PHE455     -0.0003
    170  CZ        28.9760  -38.7620  110.1230 C.ar  455  PHE455     -0.0000
    171  N         30.5290  -42.2570  113.5110 N.am  456  ALA456     -0.1977
    172  CA        31.7990  -41.7500  113.9900 C.3   456  ALA456      0.1597
    173  C         32.4060  -42.7180  115.0200 C.2   456  ALA456      0.2287
    174  O         33.5540  -42.5430  115.4440 O.2   456  ALA456     -0.2864
    175  CB        31.6040  -40.3620  114.5970 C.3   456  ALA456      0.0319
    176  N         34.6060  -39.5050  118.9100 N.3   460  GLU460     -0.1245
    177  CA        34.1870  -38.2470  119.5340 C.3   460  GLU460      0.1567
    178  C         33.5420  -38.4730  120.9010 C.2   460  GLU460      0.2260
    179  O         32.7550  -39.4010  121.0830 O.2   460  GLU460     -0.2867
    180  CB        33.2010  -37.4960  118.6280 C.3   460  GLU460      0.0388
    181  CG        33.8180  -36.8640  117.3890 C.3   460  GLU460      0.1160
    182  CD        32.7770  -36.3590  116.4040 C.2   460  GLU460      0.3649
    183  OE1       31.8980  -35.5650  116.8040 O.co2 460  GLU460     -0.2457
    184  OE2       32.8410  -36.7570  115.2230 O.co2 460  GLU460     -0.2457
    185  N         31.1210  -36.7860  123.5760 N.3   462  TYR462     -0.1241
    186  CA        30.1300  -35.7360  123.7750 C.3   462  TYR462      0.1605
    187  C         29.6860  -35.5810  125.2220 C.2   462  TYR462      0.2264
    188  O         29.0210  -34.6060  125.5580 O.2   462  TYR462     -0.2867
    189  CB        28.8780  -36.0060  122.9300 C.3   462  TYR462      0.0534
    190  CG        28.9340  -35.5360  121.4910 C.ar  462  TYR462     -0.0201
    191  CD1       29.4820  -36.3370  120.4930 C.ar  462  TYR462     -0.0009
    192  CD2       28.4070  -34.2970  121.1250 C.ar  462  TYR462     -0.0009
    193  CE1       29.5030  -35.9220  119.1570 C.ar  462  TYR462      0.0417
    194  CE2       28.4230  -33.8680  119.7920 C.ar  462  TYR462      0.0417
    195  CZ        28.9720  -34.6890  118.8150 C.ar  462  TYR462      0.1957
    196  OH        28.9930  -34.2830  117.4990 O.3   462  TYR462     -0.2866
@<TRIPOS>BOND
     1    53    52    2
     2    52    51    1
     3    50    51    1
     4    51    54    1
     5    56    58   ar
     6    56    55   ar
     7    58    60   ar
     8    64    63    2
     9    61    62    1
    10    54    55    1
    11    55    57   ar
    12    60    59   ar
    13    63    62    1
    14    62    65    1
    15    57    59   ar
    16    46    45    2
    17    65    66    1
    18    45    44    1
    19   170   168   ar
    20   170   169   ar
    21    86    87    1
    22    86    85    1
    23   168   166   ar
    24   169   167   ar
    25    66    67   ar
    26    66    68   ar
    27   166   165   ar
    28   167   165   ar
    29   165   164    1
    30    43    44    1
    31    44    47    1
    32    67    69   ar
    33   164   161    1
    34    68    70   ar
    35    83    82    2
    36    84    85    1
    37    84    81    1
    38   104   101    1
    39   104   105    1
    40    69    71   ar
    41    78    77   ar
    42   101   100    1
    43   101   102    1
    44   163   162    2
    45    49    47    1
    46    47    48    1
    47    82    81    1
    48    70    71   ar
    49   161   162    1
    50   161   160    1
    51    81    80    1
    52   105   106   ar
    53   105   107   ar
    54   103   102    2
    55   162   171   am
    56    79    77   ar
    57    77    76    1
    58   106   108   ar
    59    75    74    2
    60    37    36    2
    61   160   148   am
    62   107   110   ar
    63   107   109   ar
    64   110   112   ar
    65   171   172    1
    66    36    35    1
    67    74    73    1
    68   108   109   ar
    69    76    73    1
    70   172   175    1
    71   172   173    1
    72   109   111   ar
    73   148   149    2
    74   148   147    1
    75   112   113   ar
    76    23    22    2
    77   150   147    1
    78   150   151    1
    79    73    72    1
    80    35    38    1
    81    35    34    1
    82    38    39    1
    83    41    40   ar
    84    28    26   ar
    85    28    29   ar
    86    26    25   ar
    87    29    31   ar
    88    29    27   ar
    89    31    33   ar
    90   173   174    2
    91    25    27   ar
    92    25    24    1
    93    27    30   ar
    94    24    21    1
    95    33    32   ar
    96    30    32   ar
    97   111   113   ar
    98   147   146    1
    99   184   182   ar
   100    21    22    1
   101    21    20    1
   102   140   139    2
   103   151   153   ar
   104   151   152   ar
   105   156   153   ar
   106   156   158   ar
   107    40    39    1
   108    40    42   ar
   109   153   155   ar
   110   152   154   ar
   111   182   183   ar
   112   182   181    1
   113    20    12   am
   114   146   139   am
   115   158   159   ar
   116   139   138    1
   117    90    91    2
   118    90    89    1
   119    92    89    1
   120    92    93    1
   121   155   154   ar
   122   155   157   ar
   123   181   180    1
   124   196   195    1
   125   159   157   ar
   126    88    89    1
   127    12    13    2
   128    12    11    1
   129    94    93   ar
   130    94    96   ar
   131    93    95   ar
   132   138   141    1
   133   138   137    1
   134   141   142    1
   135    96    98   ar
   136   180   177    1
   137    11    10    1
   138    11    14    1
   139   195   193   ar
   140   195   194   ar
   141   144   143   ar
   142   176   177    1
   143    95    97   ar
   144    17    19   ar
   145    17    15   ar
   146   193   191   ar
   147    19    18   ar
   148   142   143    1
   149    98    97   ar
   150    98    99    1
   151   177   178    1
   152   194   192   ar
   153   143   145   ar
   154    15    14    1
   155    15    16   ar
   156     9     7   am
   157   121   120   ar
   158    18    16   ar
   159     7     6    1
   160     7     8    2
   161   191   190   ar
   162     6     5    1
   163   122   120   ar
   164   120   119    1
   165   178   179    2
   166   192   190   ar
   167   190   189    1
   168   118   119    1
   169   118   115    1
   170     1     2    1
   171   131   129   ar
   172   131   132   ar
   173   117   116    2
   174     5     2    1
   175     2     3    1
   176   134   132   ar
   177   134   136   ar
   178   129   128   ar
   179   132   130   ar
   180   116   115    1
   181   136   135   ar
   182   115   114    1
   183   189   186    1
   184   128   130   ar
   185   128   127    1
   186   130   133   ar
   187   135   133   ar
   188     3     4    2
   189   127   124    1
   190   185   186    1
   191   186   187    1
   192   124   125    1
   193   124   123    1
   194   187   188    2
   195   126   125    2
