@<TRIPOS>MOLECULE
tmp/1e1tA01.pdb
 93 85 0 0 0
SMALL
GASTEIGER

@<TRIPOS>ATOM
      1  N         23.6180   72.4090   35.1100 N.3   201  SER201     -0.1217
      2  CA        24.1210   73.6900   35.5770 C.3   201  SER201      0.1889
      3  C         25.3420   73.4020   36.4240 C.2   201  SER201      0.2288
      4  O         25.2250   73.0030   37.5760 O.2   201  SER201     -0.2866
      5  CB        23.0600   74.3960   36.4090 C.3   201  SER201      0.2089
      6  OG        21.7690   74.1390   35.8850 O.3   201  SER201     -0.2183
      7  N         32.5870   67.9060   36.1480 N.3   245  ARG245     -0.1245
      8  CA        32.1850   69.1920   36.6660 C.3   245  ARG245      0.1563
      9  C         33.3350   69.7780   37.4400 C.2   245  ARG245      0.2260
     10  O         33.9060   69.1450   38.3260 O.2   245  ARG245     -0.2867
     11  CB        30.9210   69.0370   37.5000 C.3   245  ARG245      0.0307
     12  CG        29.7750   68.6140   36.6060 C.3   245  ARG245      0.0489
     13  CD        28.4900   68.3810   37.3280 C.3   245  ARG245      0.2205
     14  NE        27.5520   67.7040   36.4390 N.pl3 245  ARG245     -0.0865
     15  CZ        26.2330   67.7480   36.5770 C.cat 245  ARG245      0.5346
     16  NH1       25.6950   68.4410   37.5770 N.pl3 245  ARG245      0.1354
     17  NH2       25.4550   67.0990   35.7190 N.pl3 245  ARG245      0.1354
     18  N         34.0530   71.3430   39.9030 N.3   247  GLU247     -0.1245
     19  CA        33.6090   71.7240   41.2310 C.3   247  GLU247      0.1567
     20  C         34.4490   70.9450   42.2360 C.2   247  GLU247      0.2260
     21  O         35.1230   69.9770   41.8790 O.2   247  GLU247     -0.2867
     22  CB        32.1110   71.4350   41.4040 C.3   247  GLU247      0.0388
     23  CG        31.6790   70.0220   41.0620 C.3   247  GLU247      0.1160
     24  CD        30.1830   69.9100   40.7900 C.2   247  GLU247      0.3649
     25  OE1       29.5980   70.8500   40.2040 O.co2 247  GLU247     -0.2457
     26  OE2       29.5890   68.8740   41.1590 O.co2 247  GLU247     -0.2457
     27  N         30.3090   63.3670   48.5440 N.3   252  ARG252     -0.1231
     28  CA        29.3080   62.9880   47.5900 C.3   252  ARG252      0.1694
     29  C         29.6030   63.5570   46.2010 C.2   252  ARG252      0.2592
     30  O         28.7920   63.4290   45.2760 O.2   252  ARG252     -0.2718
     31  CB        27.9070   63.3490   48.0950 C.3   252  ARG252      0.0321
     32  CG        27.5570   64.8350   48.0920 C.3   252  ARG252      0.0489
     33  CD        26.1330   65.0270   48.6240 C.3   252  ARG252      0.2205
     34  NE        25.6540   66.4020   48.5210 N.pl3 252  ARG252     -0.0865
     35  CZ        25.8830   67.3470   49.4240 C.cat 252  ARG252      0.5346
     36  NH1       26.5900   67.0600   50.5080 N.pl3 252  ARG252      0.1354
     37  NH2       25.4180   68.5830   49.2330 N.pl3 252  ARG252      0.1354
     38  N         30.7810   64.1620   46.0440 N.am  253  HIS253     -0.1976
     39  CA        31.2050   64.7600   44.7680 C.3   253  HIS253      0.1656
     40  C         32.6100   64.3810   44.3100 C.2   253  HIS253      0.2291
     41  O         33.5810   64.4760   45.0600 O.2   253  HIS253     -0.2864
     42  CB        31.1620   66.2850   44.8620 C.3   253  HIS253      0.0771
     43  CG        29.7840   66.8520   44.9780 C.ar  253  HIS253      0.0820
     44  ND1       29.2960   67.3690   46.1560 N.ar  253  HIS253     -0.2267
     45  CD2       28.7970   66.9980   44.0610 C.ar  253  HIS253      0.1154
     46  CE1       28.0660   67.8110   45.9630 C.ar  253  HIS253      0.1986
     47  NE2       27.7390   67.5980   44.7010 N.ar  253  HIS253     -0.2212
     48  N         17.0100   73.2370   49.4470 N.3   359  ASP359     -0.1239
     49  CA        18.2890   72.5560   49.5880 C.3   359  ASP359      0.1674
     50  C         18.8210   72.6560   51.0040 C.2   359  ASP359      0.2266
     51  O         19.2050   71.6570   51.6090 O.2   359  ASP359     -0.2867
     52  CB        19.3190   73.1670   48.6370 C.3   359  ASP359      0.1410
     53  CG        19.1640   72.6750   47.2100 C.2   359  ASP359      0.3668
     54  OD1       18.3160   71.7890   46.9640 O.co2 359  ASP359     -0.2456
     55  OD2       19.8980   73.1840   46.3380 O.co2 359  ASP359     -0.2456
     56  N         16.8010   68.8980   52.0930 N.3   363  GLU363     -0.1245
     57  CA        17.6340   67.8710   51.4890 C.3   363  GLU363      0.1567
     58  C         18.2860   66.8500   52.4090 C.2   363  GLU363      0.2260
     59  O         18.1110   65.6480   52.2190 O.2   363  GLU363     -0.2867
     60  CB        18.7080   68.4980   50.6140 C.3   363  GLU363      0.0388
     61  CG        19.4250   67.4480   49.7910 C.3   363  GLU363      0.1160
     62  CD        20.5920   68.0090   49.0280 C.2   363  GLU363      0.3649
     63  OE1       21.5300   68.5210   49.6760 O.co2 363  GLU363     -0.2457
     64  OE2       20.5710   67.9360   47.7810 O.co2 363  GLU363     -0.2457
     65  N         13.2230   65.2610   41.7150 N.3   397  GLU397     -0.1245
     66  CA        14.5520   64.7680   42.0200 C.3   397  GLU397      0.1567
     67  C         14.2470   63.7720   43.1130 C.2   397  GLU397      0.2260
     68  O         13.2010   63.8550   43.7530 O.2   397  GLU397     -0.2867
     69  CB        15.4550   65.8810   42.5300 C.3   397  GLU397      0.0388
     70  CG        15.9030   66.8100   41.4270 C.3   397  GLU397      0.1160
     71  CD        17.0190   67.7280   41.8550 C.2   397  GLU397      0.3649
     72  OE1       16.9630   68.2570   42.9820 O.co2 397  GLU397     -0.2457
     73  OE2       17.9590   67.9280   41.0610 O.co2 397  GLU397     -0.2457
     74  N         21.0410   63.7040   46.9600 N.3   404  GLU404     -0.1245
     75  CA        20.3250   63.6960   45.6880 C.3   404  GLU404      0.1567
     76  C         20.8650   62.5200   44.8760 C.2   404  GLU404      0.2260
     77  O         22.0640   62.4470   44.6280 O.2   404  GLU404     -0.2867
     78  CB        20.5870   64.9990   44.9330 C.3   404  GLU404      0.0388
     79  CG        19.6910   65.2010   43.7410 C.3   404  GLU404      0.1160
     80  CD        20.1380   66.3570   42.8850 C.2   404  GLU404      0.3649
     81  OE1       20.4300   67.4380   43.4470 O.co2 404  GLU404     -0.2457
     82  OE2       20.1980   66.1780   41.6490 O.co2 404  GLU404     -0.2457
     83  N         26.5860   57.5560   43.5390 N.3   463  ARG463     -0.1245
     84  CA        25.7530   57.7720   44.7210 C.3   463  ARG463      0.1563
     85  C         24.8200   56.5810   44.9140 C.2   463  ARG463      0.2260
     86  O         24.5680   56.1450   46.0410 O.2   463  ARG463     -0.2867
     87  CB        24.9520   59.0670   44.5750 C.3   463  ARG463      0.0307
     88  CG        25.8470   60.2860   44.5340 C.3   463  ARG463      0.0489
     89  CD        25.1350   61.5470   44.9680 C.3   463  ARG463      0.2205
     90  NE        26.0270   62.7050   44.8950 N.pl3 463  ARG463     -0.0865
     91  CZ        25.6190   63.9530   44.6750 C.cat 463  ARG463      0.5346
     92  NH1       24.3280   64.2070   44.5090 N.pl3 463  ARG463      0.1354
     93  NH2       26.5010   64.9460   44.5950 N.pl3 463  ARG463      0.1354
@<TRIPOS>BOND
     1     1     2    1
     2     2     5    1
     3     2     3    1
     4    17    15    1
     5     6     5    1
     6     7     8    1
     7     3     4    2
     8    14    15    2
     9    14    13    1
    10    15    16    1
    11    12    13    1
    12    12    11    1
    13     8     9    1
    14     8    11    1
    15     9    10    2
    16    18    19    1
    17    25    24   ar
    18    24    23    1
    19    24    26   ar
    20    73    71   ar
    21    23    22    1
    22    19    22    1
    23    19    20    1
    24    70    71    1
    25    70    69    1
    26    82    80   ar
    27    65    66    1
    28    71    72   ar
    29    21    20    2
    30    66    69    1
    31    66    67    1
    32    80    81   ar
    33    80    79    1
    34    67    68    2
    35    83    84    1
    36    79    78    1
    37    45    47   ar
    38    45    43   ar
    39    40    39    1
    40    40    41    2
    41    92    91    1
    42    88    87    1
    43    88    89    1
    44    87    84    1
    45    93    91    1
    46    77    76    2
    47    91    90    2
    48    47    46   ar
    49    84    85    1
    50    39    42    1
    51    39    38    1
    52    42    43    1
    53    76    75    1
    54    90    89    1
    55    85    86    2
    56    78    75    1
    57    43    44   ar
    58    30    29    2
    59    75    74    1
    60    46    44   ar
    61    38    29   am
    62    29    28    1
    63    55    53   ar
    64    54    53   ar
    65    53    52    1
    66    28    31    1
    67    28    27    1
    68    64    62   ar
    69    32    31    1
    70    32    33    1
    71    34    33    1
    72    34    35    2
    73    52    49    1
    74    62    63   ar
    75    62    61    1
    76    37    35    1
    77    35    36    1
    78    48    49    1
    79    49    50    1
    80    61    60    1
    81    60    57    1
    82    50    51    2
    83    57    56    1
    84    57    58    1
    85    59    58    2
