@<TRIPOS>MOLECULE
tmp/1e1vA00.pdb
 166 159 0 0 0
SMALL
GASTEIGER

@<TRIPOS>ATOM
      1  N         -0.2350   23.5000    3.2080 N.3    10  ILE10      -0.1231
      2  CA         0.8580   23.8910    4.0850 C.3    10  ILE10       0.1692
      3  C          0.7440   22.9390    5.2910 C.2    10  ILE10       0.2593
      4  O          1.7910   22.6350    5.8580 O.2    10  ILE10      -0.2718
      5  CB         0.8060   25.2830    4.7090 C.3    10  ILE10       0.0266
      6  CG1        0.8610   26.3900    3.6770 C.3    10  ILE10       0.0019
      7  CG2        1.9680   25.5120    5.6960 C.3    10  ILE10       0.0020
      8  CD1        0.7700   27.8060    4.1640 C.3    10  ILE10       0.0001
      9  N         -0.4920   22.6480    5.7000 N.am   11  GLY11      -0.1942
     10  CA        -0.5690   21.7820    6.8760 C.3    11  GLY11       0.2014
     11  C         -2.0070   21.6000    7.3450 C.2    11  GLY11       0.2639
     12  O         -2.9590   22.0080    6.6810 O.2    11  GLY11      -0.2714
     13  N         -2.0850   20.9710    8.5010 N.am   12  GLU12      -0.1963
     14  CA        -3.3610   20.7290    9.1550 C.3    12  GLU12       0.1733
     15  C         -3.3300   21.5920   10.4040 C.2    12  GLU12       0.2616
     16  O         -2.6350   21.2230   11.3530 O.2    12  GLU12      -0.2715
     17  CB        -3.5120   19.2560    9.5270 C.3    12  GLU12       0.0429
     18  CG        -3.7720   18.3710    8.3210 C.3    12  GLU12       0.1163
     19  CD        -3.5240   16.9020    8.5920 C.2    12  GLU12       0.3649
     20  OE1       -3.4620   16.5130    9.7780 O.co2  12  GLU12      -0.2457
     21  OE2       -3.4200   16.1710    7.5820 O.co2  12  GLU12      -0.2457
     22  N         -4.0740   22.6940   10.3900 N.am   13  GLY13      -0.1955
     23  CA        -4.0880   23.5220   11.6160 C.3    13  GLY13       0.1869
     24  C         -5.1660   23.0300   12.5660 C.2    13  GLY13       0.2309
     25  O         -5.9350   22.1050   12.3250 O.2    13  GLY13      -0.2863
     26  N         -4.6860   24.1930    6.1430 N.3    18  VAL18      -0.1245
     27  CA        -4.0890   25.4960    5.8020 C.3    18  VAL18       0.1561
     28  C         -3.4210   25.3390    4.4500 C.2    18  VAL18       0.2260
     29  O         -2.6420   24.4270    4.1500 O.2    18  VAL18      -0.2867
     30  CB        -3.0480   26.0090    6.7900 C.3    18  VAL18       0.0252
     31  CG1       -2.4980   27.4070    6.4480 C.3    18  VAL18       0.0019
     32  CG2       -3.5230   26.0600    8.2240 C.3    18  VAL18       0.0019
     33  N         -1.8200   32.6580    3.1040 N.3    31  ALA31      -0.1301
     34  CA        -2.0580   31.3870    3.7970 C.3    31  ALA31       0.1247
     35  C         -3.5820   31.3190    3.8680 C.3    31  ALA31       0.2009
     36  O         -4.0640   32.3130    4.4060 O.3    31  ALA31      -0.2188
     37  CB        -1.4460   31.4220    5.1600 C.3    31  ALA31       0.0233
     38  N         -6.9570   29.7150    5.3680 N.3    33  LYS33      -0.1245
     39  CA        -7.3290   28.7480    6.4030 C.3    33  LYS33       0.1561
     40  C         -8.8300   28.4960    6.2970 C.2    33  LYS33       0.2260
     41  O         -9.6500   29.3790    6.4520 O.2    33  LYS33      -0.2867
     42  CB        -6.8160   29.2350    7.7680 C.3    33  LYS33       0.0271
     43  CG        -5.3000   29.4900    7.8080 C.3    33  LYS33       0.0035
     44  CD        -4.7660   29.5560    9.2350 C.3    33  LYS33       0.0206
     45  CE        -3.2880   29.3080    9.4290 C.3    33  LYS33       0.1093
     46  NZ        -2.8010   29.7070   10.7840 N.3    33  LYS33      -0.1314
     47  N          0.7260   37.9970   12.6250 N.3    56  VAL56      -0.1245
     48  CA         0.4790   37.5300   11.2830 C.3    56  VAL56       0.1561
     49  C         -0.7530   38.3280   10.8070 C.2    56  VAL56       0.2260
     50  O         -1.8170   38.2350   11.4080 O.2    56  VAL56      -0.2867
     51  CB         0.2430   36.0170   11.1310 C.3    56  VAL56       0.0252
     52  CG1       -0.0930   35.6110    9.6730 C.3    56  VAL56       0.0019
     53  CG2        1.5420   35.3290   11.5760 C.3    56  VAL56       0.0019
     54  N         -4.4800   34.9530    5.5030 N.3    72  PHE72      -0.1227
     55  CA        -3.4800   35.5760    6.3560 C.3    72  PHE72       0.1736
     56  C         -2.3030   35.8860    5.4490 C.2    72  PHE72       0.2598
     57  O         -2.0550   35.1830    4.4670 O.2    72  PHE72      -0.2717
     58  CB        -2.9290   34.6310    7.4560 C.3    72  PHE72       0.0547
     59  CG        -3.9200   34.5300    8.5880 C.ar   72  PHE72      -0.0202
     60  CD1       -4.7860   33.4490    8.6570 C.ar   72  PHE72      -0.0042
     61  CD2       -3.9660   35.5310    9.5380 C.ar   72  PHE72      -0.0042
     62  CE1       -5.6580   33.3570    9.7200 C.ar   72  PHE72      -0.0003
     63  CE2       -4.8910   35.4440   10.5810 C.ar   72  PHE72      -0.0003
     64  CZ        -5.7610   34.3460   10.6500 C.ar   72  PHE72      -0.0000
     65  N         -1.4800   36.7520    6.0030 N.am   73  GLU73      -0.1920
     66  CA        -0.1780   36.9760    5.3550 C.3    73  GLU73       0.1949
     67  C          0.5850   35.6590    5.4210 C.2    73  GLU73       0.2659
     68  O          0.4700   34.8260    6.3450 O.2    73  GLU73      -0.2711
     69  CB         0.4280   38.0760    6.2350 C.2    73  GLU73       0.0111
     70  CG         1.8790   38.0570    6.4070 C.2    73  GLU73       0.0838
     71  CD         2.4170   38.9430    7.5150 C.2    73  GLU73       0.3877
     72  OE1        3.5890   39.3210    7.3110 O.co2  73  GLU73      -0.2406
     73  OE2        1.7960   39.2740    8.5310 O.co2  73  GLU73      -0.2406
     74  N          1.3940   35.4660    4.3910 N.am   74  PHE74      -0.1957
     75  CA         2.1530   34.2240    4.2910 C.3    74  PHE74       0.1771
     76  C          3.5740   34.4610    4.7580 C.2    74  PHE74       0.2619
     77  O          4.2010   35.3640    4.2350 O.2    74  PHE74      -0.2715
     78  CB         2.1750   33.7150    2.8510 C.3    74  PHE74       0.0574
     79  CG         2.9540   32.4470    2.6580 C.ar   74  PHE74      -0.0200
     80  CD1        2.4130   31.2010    2.9690 C.ar   74  PHE74      -0.0042
     81  CD2        4.2270   32.5380    2.1290 C.ar   74  PHE74      -0.0042
     82  CE1        3.1580   30.0650    2.7440 C.ar   74  PHE74      -0.0003
     83  CE2        4.9870   31.4060    1.9090 C.ar   74  PHE74      -0.0003
     84  CZ         4.4430   30.1660    2.2510 C.ar   74  PHE74      -0.0000
     85  N          4.0440   33.6250    5.6500 N.am   75  LEU75      -0.1963
     86  CA         5.4380   33.7300    6.1240 C.3    75  LEU75       0.1728
     87  C          6.2340   32.5660    5.5630 C.2    75  LEU75       0.2616
     88  O          5.4970   31.6800    5.0490 O.2    75  LEU75      -0.2715
     89  CB         5.2870   33.7680    7.6600 C.3    75  LEU75       0.0311
     90  CG         5.2140   35.2890    7.9700 C.3    75  LEU75       0.0022
     91  CD1        3.8300   35.7050    8.3850 C.3    75  LEU75       0.0001
     92  CD2        6.2730   35.8200    8.9160 C.3    75  LEU75       0.0001
     93  N          7.5380   32.3510    5.6630 N.am   76  HIS76      -0.1959
     94  CA         7.8740   31.0660    4.9530 C.3    76  HIS76       0.1787
     95  C          8.1410   29.9370    5.9100 C.2    76  HIS76       0.2620
     96  O          8.1600   28.8520    5.3670 O.2    76  HIS76      -0.2715
     97  CB         8.7210   31.0940    3.7360 C.3    76  HIS76       0.0785
     98  CG         8.3440   31.8470    2.5120 C.ar   76  HIS76       0.0821
     99  ND1        8.1770   33.2590    2.4100 N.ar   76  HIS76      -0.2267
    100  CD2        8.2370   31.3070    1.2450 C.ar   76  HIS76       0.1154
    101  CE1        7.9410   33.4660    1.1430 C.ar   76  HIS76       0.1986
    102  NE2        7.9460   32.3560    0.3890 N.ar   76  HIS76      -0.2212
    103  N          8.1950   30.1300    7.2200 N.am   77  GLN77      -0.1963
    104  CA         8.3010   28.9230    8.0460 C.3    77  GLN77       0.1733
    105  C          7.7710   29.1140    9.4520 C.2    77  GLN77       0.2616
    106  O          7.7220   30.2670    9.8780 O.2    77  GLN77      -0.2715
    107  CB         9.7910   28.5750    8.0980 C.3    77  GLN77       0.0408
    108  CG         9.8820   27.2230    8.7920 C.3    77  GLN77       0.0908
    109  CD        11.2410   26.6220    8.5810 C.2    77  GLN77       0.2608
    110  OE1       11.2340   25.5630    7.9200 O.2    77  GLN77      -0.2717
    111  NE2       12.2430   27.2860    9.0730 N.am   77  GLN77      -0.0878
    112  N          7.3040   28.0460   10.0820 N.am   78  ASP78      -0.1971
    113  CA         6.8460   28.0780   11.4480 C.3    78  ASP78       0.1709
    114  C          8.0810   27.7160   12.3110 C.2    78  ASP78       0.2293
    115  O          9.0700   27.0810   11.8730 O.2    78  ASP78      -0.2864
    116  CB         5.6530   27.1720   11.7380 C.3    78  ASP78       0.1436
    117  CG         5.9780   25.6910   11.6580 C.2    78  ASP78       0.3671
    118  OD1        5.6710   25.1520   10.6010 O.co2  78  ASP78      -0.2456
    119  OD2        6.5940   25.1120   12.5770 O.co2  78  ASP78      -0.2456
    120  N          9.2090   23.8830   12.7190 N.3    81  LYS81      -0.1245
    121  CA        10.0830   23.4290   11.6050 C.3    81  LYS81       0.1561
    122  C         11.4750   23.9940   11.7730 C.2    81  LYS81       0.2260
    123  O         12.4850   23.3090   11.5570 O.2    81  LYS81      -0.2867
    124  CB         9.4910   23.8650   10.2490 C.3    81  LYS81       0.0271
    125  CG         8.1090   23.2800   10.0560 C.3    81  LYS81       0.0035
    126  CD         7.6560   23.1010    8.6000 C.3    81  LYS81       0.0206
    127  CE         6.1880   22.6610    8.5840 C.3    81  LYS81       0.1093
    128  NZ         5.5720   23.0370    7.2590 N.3    81  LYS81      -0.1314
    129  N          4.2450   25.7620   16.2890 N.3   123  GLN123     -0.1231
    130  CA         3.5920   25.7510   14.9860 C.3   123  GLN123      0.1698
    131  C          2.8240   27.0280   14.6890 C.2   123  GLN123      0.2592
    132  O          2.5460   27.2850   13.5210 O.2   123  GLN123     -0.2718
    133  CB         2.6930   24.4990   14.8440 C.3   123  GLN123      0.0381
    134  CG         3.4900   23.2610   14.4090 C.3   123  GLN123      0.0905
    135  CD         2.5690   22.0700   14.1750 C.2   123  GLN123      0.2608
    136  OE1        2.9700   21.1470   13.4310 O.2   123  GLN123     -0.2717
    137  NE2        1.3790   22.1390   14.7750 N.am  123  GLN123     -0.0878
    138  N          2.4250   27.8980   15.6170 N.am  124  ASN124     -0.1974
    139  CA         1.7380   29.1140   15.2020 C.3   124  ASN124      0.1688
    140  C          2.6270   30.3340   15.3340 C.2   124  ASN124      0.2292
    141  O          2.2110   31.4900   15.4150 O.2   124  ASN124     -0.2864
    142  CB         0.3130   29.2630   15.7170 C.3   124  ASN124      0.1181
    143  CG         0.1530   29.0770   17.1940 C.2   124  ASN124      0.2629
    144  OD1       -0.7850   28.4370   17.7140 O.2   124  ASN124     -0.2716
    145  ND2        1.1600   29.6520   17.8270 N.am  124  ASN124     -0.0877
    146  N          5.4870   32.1930   13.3250 N.3   126  LEU126     -0.1245
    147  CA         6.0260   32.1160   11.9880 C.3   126  LEU126      0.1561
    148  C          7.1740   33.0870   11.7260 C.2   126  LEU126      0.2260
    149  O          7.0970   34.1690   12.2810 O.2   126  LEU126     -0.2867
    150  CB         4.8850   32.3910   11.0070 C.3   126  LEU126      0.0270
    151  CG         3.6800   31.3830   11.2630 C.3   126  LEU126      0.0019
    152  CD1        2.6250   31.8250   10.2660 C.3   126  LEU126      0.0001
    153  CD2        4.1530   29.9990   11.0350 C.3   126  LEU126      0.0001
    154  N          0.7080   33.6840   14.7350 N.3   136  ALA136     -0.1231
    155  CA        -0.4030   33.3840   13.8510 C.3   136  ALA136      0.1694
    156  C         -1.5930   32.8880   14.6930 C.2   136  ALA136      0.2592
    157  O         -1.3960   32.3840   15.7830 O.2   136  ALA136     -0.2718
    158  CB        -0.0680   32.2310   12.9130 C.3   136  ALA136      0.0304
    159  N         -2.7920   33.0260   14.1870 N.am  137  ASP137     -0.1974
    160  CA        -4.0150   32.5100   14.8330 C.3   137  ASP137      0.1709
    161  C         -4.3500   33.2100   16.1330 C.2   137  ASP137      0.2293
    162  O         -5.1360   32.6910   16.9100 O.2   137  ASP137     -0.2864
    163  CB        -4.0650   30.9970   15.0440 C.3   137  ASP137      0.1436
    164  CG        -3.8860   30.2800   13.7420 C.2   137  ASP137      0.3671
    165  OD1       -3.9790   30.9360   12.7010 O.co2 137  ASP137     -0.2456
    166  OD2       -3.5640   29.0720   13.7250 O.co2 137  ASP137     -0.2456
@<TRIPOS>BOND
     1   102   101   ar
     2   102   100   ar
     3   101    99   ar
     4   100    98   ar
     5    83    81   ar
     6    83    84   ar
     7    81    79   ar
     8    84    82   ar
     9    99    98   ar
    10    98    97    1
    11    79    78    1
    12    79    80   ar
    13    82    80   ar
    14    78    75    1
    15    33    34    1
    16     1     2    1
    17     6     8    1
    18     6     5    1
    19    97    94    1
    20    34    35    1
    21    34    37    1
    22    35    36    1
    23     2     5    1
    24     2     3    1
    25    29    28    2
    26    77    76    2
    27    75    74    1
    28    75    76    1
    29    74    67   am
    30    28    27    1
    31    57    56    2
    32     5     7    1
    33    76    85   am
    34    94    93    1
    35    94    95    1
    36    88    87    2
    37     3     9   am
    38     3     4    2
    39    66    67    1
    40    66    65    1
    41    66    69    1
    42    96    95    2
    43    38    39    1
    44    67    68    2
    45    56    65   am
    46    56    55    1
    47    54    55    1
    48    87    93   am
    49    87    86    1
    50    85    86    1
    51     9    10    1
    52    27    26    1
    53    27    30    1
    54    95   103   am
    55    86    89    1
    56    69    70    2
    57    40    39    1
    58    40    41    2
    59    55    58    1
    60    39    42    1
    61    70    71    1
    62    31    30    1
    63    12    11    2
    64    30    32    1
    65    10    11    1
    66   103   104    1
    67   128   127    1
    68    72    71   ar
    69    11    13   am
    70    58    59    1
    71    71    73   ar
    72    21    19   ar
    73    89    90    1
    74    42    43    1
    75    43    44    1
    76   110   109    2
    77    90    91    1
    78    90    92    1
    79   104   107    1
    80   104   105    1
    81   107   108    1
    82    18    19    1
    83    18    17    1
    84    13    14    1
    85   109   108    1
    86   109   111   am
    87   127   126    1
    88    59    60   ar
    89    59    61   ar
    90    19    20   ar
    91   126   125    1
    92    60    62   ar
    93    14    17    1
    94    14    15    1
    95    44    45    1
    96    45    46    1
    97   105   106    2
    98   105   112   am
    99    61    63   ar
   100    52    51    1
   101    62    64   ar
   102   125   124    1
   103   112   113    1
   104   124   121    1
   105   152   151    1
   106    22    15   am
   107    22    23    1
   108    15    16    2
   109    63    64   ar
   110   118   117   ar
   111    49    48    1
   112    49    50    2
   113   150   151    1
   114   150   147    1
   115   153   151    1
   116    51    48    1
   117    51    53    1
   118    48    47    1
   119   113   116    1
   120   113   114    1
   121   123   122    2
   122   121   122    1
   123   121   120    1
   124    23    24    1
   125   117   116    1
   126   117   119   ar
   127   148   147    1
   128   148   149    2
   129   115   114    2
   130   147   146    1
   131    25    24    2
   132   165   164   ar
   133   158   155    1
   134   136   135    2
   135   132   131    2
   136   166   164   ar
   137   164   163    1
   138   155   156    1
   139   155   154    1
   140   135   134    1
   141   135   137   am
   142   159   156   am
   143   159   160    1
   144   134   133    1
   145   131   130    1
   146   131   138   am
   147   156   157    2
   148   160   163    1
   149   160   161    1
   150   133   130    1
   151   130   129    1
   152   139   140    1
   153   139   138    1
   154   139   142    1
   155   140   141    2
   156   142   143    1
   157   161   162    2
   158   143   144    2
   159   143   145   am
