@<TRIPOS>MOLECULE
tmp/1e1xA00.pdb
 158 151 0 0 0
SMALL
GASTEIGER

@<TRIPOS>ATOM
      1  N         -0.5280   22.5990    3.3100 N.3    10  ILE10      -0.1231
      2  CA         0.6360   22.8480    4.1420 C.3    10  ILE10       0.1692
      3  C          0.6850   21.8080    5.2430 C.2    10  ILE10       0.2593
      4  O          1.7980   21.3190    5.4530 O.2    10  ILE10      -0.2718
      5  CB         0.7590   24.2540    4.7540 C.3    10  ILE10       0.0266
      6  CG1        0.8350   25.2990    3.6720 C.3    10  ILE10       0.0019
      7  CG2        1.9820   24.2940    5.6850 C.3    10  ILE10       0.0020
      8  CD1        0.7830   26.7410    4.0960 C.3    10  ILE10       0.0001
      9  N         -0.4130   21.5710    5.9460 N.am   11  GLY11      -0.1942
     10  CA        -0.4080   20.5990    7.0490 C.3    11  GLY11       0.2014
     11  C         -1.8080   20.6160    7.6580 C.2    11  GLY11       0.2639
     12  O         -2.7620   21.0720    7.0370 O.2    11  GLY11      -0.2714
     13  N         -1.9620   20.1410    8.8860 N.am   12  GLU12      -0.1963
     14  CA        -3.2290   20.0780    9.5960 C.3    12  GLU12       0.1733
     15  C         -3.1130   20.9100   10.8700 C.2    12  GLU12       0.2616
     16  O         -2.2200   20.7100   11.7150 O.2    12  GLU12      -0.2715
     17  CB        -3.5700   18.6320    9.9480 C.3    12  GLU12       0.0429
     18  CG        -3.6590   17.7640    8.6980 C.3    12  GLU12       0.1163
     19  CD        -3.3960   16.2970    9.0020 C.2    12  GLU12       0.3649
     20  OE1       -3.6400   15.9530   10.1880 O.co2  12  GLU12      -0.2457
     21  OE2       -2.9850   15.5780    8.0590 O.co2  12  GLU12      -0.2457
     22  N         -3.9120   21.9670   10.9200 N.am   13  GLY13      -0.1955
     23  CA        -3.8180   22.8170   12.1190 C.3    13  GLY13       0.1869
     24  C         -4.9000   22.2690   13.0610 C.2    13  GLY13       0.2309
     25  O         -5.5770   21.2810   12.7930 O.2    13  GLY13      -0.2863
     26  N         -4.5760   23.1270    6.4870 N.3    18  VAL18      -0.1245
     27  CA        -4.0740   24.4710    6.1580 C.3    18  VAL18       0.1561
     28  C         -3.5240   24.3340    4.7550 C.2    18  VAL18       0.2260
     29  O         -2.7850   23.3770    4.5070 O.2    18  VAL18      -0.2867
     30  CB        -2.9220   24.9910    7.0560 C.3    18  VAL18       0.0252
     31  CG1       -2.5500   26.4130    6.5960 C.3    18  VAL18       0.0019
     32  CG2       -3.4050   24.9620    8.4990 C.3    18  VAL18       0.0019
     33  N         -2.0860   31.6370    3.0880 N.3    31  ALA31      -0.1301
     34  CA        -2.2720   30.2990    3.7400 C.3    31  ALA31       0.1247
     35  C         -3.8300   30.2940    3.9170 C.3    31  ALA31       0.2009
     36  O         -4.2920   31.3120    4.4280 O.3    31  ALA31      -0.2188
     37  CB        -1.7080   30.2040    5.1120 C.3    31  ALA31       0.0233
     38  N         -6.9940   28.4680    5.7290 N.3    33  LYS33      -0.1245
     39  CA        -7.3780   27.4970    6.7380 C.3    33  LYS33       0.1561
     40  C         -8.8610   27.1620    6.5740 C.2    33  LYS33       0.2260
     41  O         -9.7080   28.0430    6.7290 O.2    33  LYS33      -0.2867
     42  CB        -7.0870   28.1090    8.1300 C.3    33  LYS33       0.0271
     43  CG        -5.5480   28.3580    8.2300 C.3    33  LYS33       0.0035
     44  CD        -5.0650   28.4220    9.6750 C.3    33  LYS33       0.0206
     45  CE        -3.6270   28.9030    9.7590 C.3    33  LYS33       0.1093
     46  NZ        -3.2370   29.1840   11.1670 N.3    33  LYS33      -0.1314
     47  N          0.3350   37.1280   12.7340 N.3    56  VAL56      -0.1245
     48  CA         0.0450   36.7250   11.3740 C.3    56  VAL56       0.1561
     49  C         -1.2180   37.4380   10.9270 C.2    56  VAL56       0.2260
     50  O         -2.2870   37.2800   11.5320 O.2    56  VAL56      -0.2867
     51  CB        -0.0350   35.2210   11.1510 C.3    56  VAL56       0.0252
     52  CG1       -0.3870   34.9290    9.6590 C.3    56  VAL56       0.0019
     53  CG2        1.2840   34.5390   11.5020 C.3    56  VAL56       0.0019
     54  N         -4.9530   33.8600    5.6180 N.3    72  PHE72      -0.1227
     55  CA        -3.9520   34.6270    6.3620 C.3    72  PHE72       0.1736
     56  C         -2.7680   34.8850    5.4080 C.2    72  PHE72       0.2595
     57  O         -2.5070   34.1320    4.4850 O.2    72  PHE72      -0.2718
     58  CB        -3.3680   33.8050    7.5450 C.3    72  PHE72       0.0547
     59  CG        -4.3580   33.5640    8.6770 C.ar   72  PHE72      -0.0202
     60  CD1       -5.2170   32.5090    8.6990 C.ar   72  PHE72      -0.0042
     61  CD2       -4.3500   34.4210    9.7490 C.ar   72  PHE72      -0.0042
     62  CE1       -6.0550   32.3120    9.7960 C.ar   72  PHE72      -0.0003
     63  CE2       -5.1580   34.2780   10.8480 C.ar   72  PHE72      -0.0003
     64  CZ        -6.0550   33.2070   10.8650 C.ar   72  PHE72      -0.0000
     65  N         -1.9880   35.8260    5.8950 N.am   73  GLU73      -0.1965
     66  CA        -0.6590   36.1450    5.3650 C.3    73  GLU73       0.1733
     67  C          0.1510   34.8690    5.3610 C.2    73  GLU73       0.2616
     68  O          0.0730   34.0230    6.2850 O.2    73  GLU73      -0.2715
     69  CB        -0.1340   37.2840    6.2440 C.3    73  GLU73       0.0429
     70  CG         1.3740   37.4070    6.3040 C.3    73  GLU73       0.1163
     71  CD         1.8950   38.2910    7.4310 C.2    73  GLU73       0.3649
     72  OE1        3.0810   38.7140    7.2680 O.co2  73  GLU73      -0.2457
     73  OE2        1.2530   38.5960    8.4570 O.co2  73  GLU73      -0.2457
     74  N          0.9090   34.6020    4.3160 N.am   74  PHE74      -0.1960
     75  CA         1.7180   33.3970    4.2480 C.3    74  PHE74       0.1771
     76  C          3.1280   33.6990    4.8020 C.2    74  PHE74       0.2619
     77  O          3.7510   34.6520    4.2760 O.2    74  PHE74      -0.2715
     78  CB         1.8840   32.9060    2.8100 C.3    74  PHE74       0.0574
     79  CG         2.5430   31.5790    2.6020 C.ar   74  PHE74      -0.0200
     80  CD1        1.8630   30.4010    2.8600 C.ar   74  PHE74      -0.0042
     81  CD2        3.8650   31.5000    2.1590 C.ar   74  PHE74      -0.0042
     82  CE1        2.4960   29.1840    2.6490 C.ar   74  PHE74      -0.0003
     83  CE2        4.4740   30.2790    1.9740 C.ar   74  PHE74      -0.0003
     84  CZ         3.8120   29.1100    2.2020 C.ar   74  PHE74      -0.0000
     85  N          3.5770   32.8270    5.7050 N.am   75  LEU75      -0.1963
     86  CA         4.9540   33.0160    6.2000 C.3    75  LEU75       0.1728
     87  C          5.8540   31.9350    5.6640 C.2    75  LEU75       0.2616
     88  O          5.2810   30.9910    5.0770 O.2    75  LEU75      -0.2715
     89  CB         5.0050   33.1780    7.7420 C.3    75  LEU75       0.0311
     90  CG         4.8380   34.7070    7.9600 C.3    75  LEU75       0.0022
     91  CD1        3.4390   35.0480    8.4180 C.3    75  LEU75       0.0001
     92  CD2        5.9490   35.3110    8.7930 C.3    75  LEU75       0.0001
     93  N          7.1830   31.8990    5.8170 N.am   76  HIS76      -0.1959
     94  CA         7.8060   30.7860    5.1120 C.3    76  HIS76       0.1787
     95  C          8.1720   29.5770    5.9150 C.2    76  HIS76       0.2620
     96  O          8.4800   28.5710    5.2460 O.2    76  HIS76      -0.2715
     97  CB         8.9400   31.0380    4.1570 C.3    76  HIS76       0.0785
     98  CG         8.5750   31.1800    2.7050 C.ar   76  HIS76       0.0821
     99  ND1        7.9480   32.2820    2.1850 N.ar   76  HIS76      -0.2267
    100  CD2        8.8730   30.4540    1.6120 C.ar   76  HIS76       0.1154
    101  CE1        7.7920   32.1480    0.8900 C.ar   76  HIS76       0.1986
    102  NE2        8.3850   31.0360    0.4900 N.ar   76  HIS76      -0.2212
    103  N          8.1240   29.6550    7.2440 N.am   77  GLN77      -0.1963
    104  CA         8.4280   28.3840    7.8970 C.3    77  GLN77       0.1733
    105  C          7.7990   28.4970    9.2880 C.2    77  GLN77       0.2616
    106  O          7.7360   29.6130    9.7610 O.2    77  GLN77      -0.2715
    107  CB         9.9530   28.2520    7.9920 C.3    77  GLN77       0.0408
    108  CG        10.3020   26.8010    8.4010 C.3    77  GLN77       0.0908
    109  CD        11.7180   26.5540    7.9600 C.2    77  GLN77       0.2608
    110  OE1       11.9730   26.4090    6.7230 O.2    77  GLN77      -0.2717
    111  NE2       12.6010   26.5480    8.9280 N.am   77  GLN77      -0.0878
    112  N          7.4050   27.3720    9.8240 N.am   78  ASP78      -0.1971
    113  CA         6.9320   27.4270   11.2160 C.3    78  ASP78       0.1709
    114  C          8.1320   27.0720   12.1190 C.2    78  ASP78       0.2293
    115  O          9.1080   26.4230   11.7170 O.2    78  ASP78      -0.2864
    116  CB         5.7620   26.5400   11.5090 C.3    78  ASP78       0.1436
    117  CG         6.0810   25.0900   11.2800 C.2    78  ASP78       0.3671
    118  OD1        5.9980   24.6540   10.1000 O.co2  78  ASP78      -0.2456
    119  OD2        6.3910   24.3840   12.2450 O.co2  78  ASP78      -0.2456
    120  N          9.2960   23.2970   12.6210 N.3    81  LYS81      -0.1245
    121  CA        10.1800   22.9240   11.4790 C.3    81  LYS81       0.1561
    122  C         11.5530   23.5360   11.6610 C.2    81  LYS81       0.2260
    123  O         12.5710   22.8760   11.4700 O.2    81  LYS81      -0.2867
    124  CB         9.5380   23.4210   10.1700 C.3    81  LYS81       0.0271
    125  CG         8.6600   22.4470    9.4000 C.3    81  LYS81       0.0035
    126  CD         8.5840   22.7510    7.8770 C.3    81  LYS81       0.0206
    127  CE         7.5330   21.8440    7.2420 C.3    81  LYS81       0.1093
    128  NZ         7.4690   21.8990    5.7390 N.3    81  LYS81      -0.1314
    129  N          4.1020   25.1210   16.3300 N.3   123  GLN123     -0.1231
    130  CA         3.4770   25.0650   15.0110 C.3   123  GLN123      0.1698
    131  C          2.7180   26.3170   14.6440 C.2   123  GLN123      0.2592
    132  O          2.3490   26.5280   13.4540 O.2   123  GLN123     -0.2718
    133  CB         2.6890   23.7530   14.8990 C.3   123  GLN123      0.0381
    134  CG         3.5130   22.4780   15.1430 C.3   123  GLN123      0.0905
    135  CD         3.8740   22.1800   16.6030 C.2   123  GLN123      0.2608
    136  OE1        3.6230   22.8470   17.6280 O.2   123  GLN123     -0.2717
    137  NE2        4.5850   21.0540   16.8220 N.am  123  GLN123     -0.0878
    138  N          2.3090   27.1730   15.6030 N.am  124  ASN124     -0.1974
    139  CA         1.5740   28.3830   15.2890 C.3   124  ASN124      0.1688
    140  C          2.4230   29.6330   15.5090 C.2   124  ASN124      0.2292
    141  O          1.9200   30.7410   15.5860 O.2   124  ASN124     -0.2864
    142  CB         0.1130   28.3980   15.7280 C.3   124  ASN124      0.1181
    143  CG        -0.1410   28.2430   17.2260 C.2   124  ASN124      0.2629
    144  OD1       -1.2550   27.8590   17.6920 O.2   124  ASN124     -0.2716
    145  ND2        0.9690   28.5900   17.8510 N.am  124  ASN124     -0.0877
    146  N          5.2920   31.6270   13.4070 N.3   126  LEU126     -0.1245
    147  CA         5.7760   31.5120   12.0300 C.3   126  LEU126      0.1561
    148  C          6.9250   32.4710   11.7680 C.2   126  LEU126      0.2260
    149  O          6.8180   33.5740   12.2890 O.2   126  LEU126     -0.2867
    150  CB         4.6350   31.9070   11.0540 C.3   126  LEU126      0.0270
    151  CG         3.6120   30.8870   10.5510 C.3   126  LEU126      0.0019
    152  CD1        4.2060   29.9990    9.4370 C.3   126  LEU126      0.0001
    153  CD2        3.0280   29.9530   11.5530 C.3   126  LEU126      0.0001
    154  N          0.4280   32.8140   14.8190 N.3   136  ALA136     -0.1245
    155  CA        -0.7990   32.5200   13.9720 C.3   136  ALA136      0.1562
    156  C         -1.8930   32.0670   14.9360 C.2   136  ALA136      0.2260
    157  O         -1.6390   31.5940   16.0560 O.2   136  ALA136     -0.2867
    158  CB        -0.3790   31.3580   13.0850 C.3   136  ALA136      0.0290
@<TRIPOS>BOND
     1   102   101   ar
     2   102   100   ar
     3   101    99   ar
     4   100    98   ar
     5    83    81   ar
     6    83    84   ar
     7    81    79   ar
     8    99    98   ar
     9    84    82   ar
    10    79    78    1
    11    79    80   ar
    12    82    80   ar
    13    98    97    1
    14    78    75    1
    15    33    34    1
    16     1     2    1
    17     6     8    1
    18     6     5    1
    19    34    35    1
    20    34    37    1
    21    35    36    1
    22     2     5    1
    23     2     3    1
    24    97    94    1
    25    75    74    1
    26    75    76    1
    27    77    76    2
    28    74    67   am
    29    57    56    2
    30    29    28    2
    31     5     7    1
    32    28    27    1
    33    76    85   am
    34    88    87    2
    35    94    93    1
    36    94    95    1
    37     3     4    2
    38     3     9   am
    39    96    95    2
    40    67    66    1
    41    67    68    2
    42    66    65    1
    43    66    69    1
    44    56    65   am
    45    56    55    1
    46    54    55    1
    47    87    93   am
    48    87    86    1
    49    85    86    1
    50    38    39    1
    51   128   127    1
    52    95   103   am
    53     9    10    1
    54    27    26    1
    55    27    30    1
    56    86    89    1
    57    69    70    1
    58    70    71    1
    59    55    58    1
    60    40    41    2
    61    40    39    1
    62    31    30    1
    63   110   109    2
    64    39    42    1
    65    12    11    2
    66    10    11    1
    67    30    32    1
    68   127   126    1
    69   103   104    1
    70    72    71   ar
    71    71    73   ar
    72    58    59    1
    73    11    13   am
    74    89    90    1
    75   126   125    1
    76   104   107    1
    77   104   105    1
    78    90    91    1
    79    90    92    1
    80   109   108    1
    81   109   111   am
    82   107   108    1
    83    21    19   ar
    84    42    43    1
    85    43    44    1
    86    59    60   ar
    87    59    61   ar
    88    18    19    1
    89    18    17    1
    90    60    62   ar
    91    13    14    1
    92    19    20   ar
    93   105   106    2
    94   105   112   am
    95   125   124    1
    96   152   151    1
    97    14    17    1
    98    14    15    1
    99    52    51    1
   100    44    45    1
   101    61    63   ar
   102    45    46    1
   103    62    64   ar
   104   112   113    1
   105   118   117   ar
   106   124   121    1
   107   151   150    1
   108   151   153    1
   109    63    64   ar
   110    15    22   am
   111    15    16    2
   112    22    23    1
   113    49    48    1
   114    49    50    2
   115   150   147    1
   116    51    48    1
   117    51    53    1
   118   113   116    1
   119   113   114    1
   120   117   116    1
   121   117   119   ar
   122    48    47    1
   123   123   122    2
   124   121   122    1
   125   121   120    1
   126   115   114    2
   127   148   147    1
   128   148   149    2
   129   147   146    1
   130    23    24    1
   131    25    24    2
   132   158   155    1
   133   132   131    2
   134   155   154    1
   135   155   156    1
   136   131   130    1
   137   131   138   am
   138   133   130    1
   139   133   134    1
   140   156   157    2
   141   130   129    1
   142   134   135    1
   143   139   140    1
   144   139   138    1
   145   139   142    1
   146   140   141    2
   147   142   143    1
   148   135   137   am
   149   135   136    2
   150   143   144    2
   151   143   145   am
