@<TRIPOS>MOLECULE
tmp/1e1yA00.pdb
 145 143 0 0 0
SMALL
GASTEIGER

@<TRIPOS>ATOM
      1  N         33.2580   30.8090   36.4640 N.3   268  ASN268     -0.1225
      2  CA        33.9400   30.8930   35.1850 C.3   268  ASN268      0.1785
      3  C         33.6850   29.6680   34.3140 C.2   268  ASN268      0.2597
      4  O         33.7250   28.5300   34.7850 O.2   268  ASN268     -0.2718
      5  CB        35.4460   31.0590   35.3880 C.3   268  ASN268      0.1169
      6  CG        35.7770   32.1860   36.3410 C.2   268  ASN268      0.2627
      7  OD1       36.6590   32.0580   37.1890 O.2   268  ASN268     -0.2716
      8  ND2       35.0560   33.3050   36.2060 N.am  268  ASN268     -0.0877
      9  N         33.4210   29.9100   33.0380 N.am  269  ASP269     -0.1960
     10  CA        33.1410   28.8510   32.0710 C.3   269  ASP269      0.1840
     11  C         34.1950   28.9470   30.9660 C.2   269  ASP269      0.2622
     12  O         34.2850   29.9490   30.2680 O.2   269  ASP269     -0.2715
     13  CB        31.7370   29.0700   31.5000 C.3   269  ASP269      0.1450
     14  CG        31.3800   28.0880   30.4080 C.2   269  ASP269      0.3671
     15  OD1       31.7450   28.3480   29.2410 O.co2 269  ASP269     -0.2456
     16  OD2       30.7500   27.0510   30.7190 O.co2 269  ASP269     -0.2456
     17  N         35.0230   27.9010   30.8260 N.am  270  ASN270     -0.1958
     18  CA        36.0630   27.9030   29.8100 C.3   270  ASN270      0.1819
     19  C         37.1480   28.9610   30.0500 C.2   270  ASN270      0.2621
     20  O         37.6980   29.5310   29.1000 O.2   270  ASN270     -0.2715
     21  CB        35.4560   28.1210   28.4230 C.3   270  ASN270      0.1195
     22  CG        35.0590   26.8290   27.7490 C.2   270  ASN270      0.2630
     23  OD1       35.9110   26.0930   27.2620 O.2   270  ASN270     -0.2716
     24  ND2       33.7610   26.5500   27.7090 N.am  270  ASN270     -0.0877
     25  N         37.4450   29.2370   31.3140 N.am  271  PHE271     -0.1974
     26  CA        38.4670   30.2270   31.6500 C.3   271  PHE271      0.1639
     27  C         39.1590   29.8330   32.9420 C.2   271  PHE271      0.2290
     28  O         38.5120   29.3980   33.8930 O.2   271  PHE271     -0.2864
     29  CB        37.8390   31.6170   31.8080 C.3   271  PHE271      0.0560
     30  CG        38.8150   32.6900   32.1980 C.ar  271  PHE271     -0.0200
     31  CD1       39.8270   33.0850   31.3280 C.ar  271  PHE271     -0.0042
     32  CD2       38.7230   33.3070   33.4430 C.ar  271  PHE271     -0.0042
     33  CE1       40.7350   34.0830   31.6980 C.ar  271  PHE271     -0.0003
     34  CE2       39.6280   34.3050   33.8200 C.ar  271  PHE271     -0.0003
     35  CZ        40.6360   34.6900   32.9390 C.ar  271  PHE271     -0.0000
     36  N         41.3480   30.8540   36.2410 N.3   273  GLU273     -0.1245
     37  CA        41.6690   31.9490   37.1450 C.3   273  GLU273      0.1567
     38  C         42.4980   31.2770   38.2310 C.2   273  GLU273      0.2260
     39  O         41.9760   30.5110   39.0390 O.2   273  GLU273     -0.2867
     40  CB        40.4020   32.5560   37.7510 C.3   273  GLU273      0.0388
     41  CG        40.6770   33.7280   38.6730 C.3   273  GLU273      0.1160
     42  CD        39.4800   34.6400   38.8610 C.2   273  GLU273      0.3649
     43  OE1       38.4370   34.1680   39.3580 O.co2 273  GLU273     -0.2457
     44  OE2       39.5830   35.8360   38.5120 O.co2 273  GLU273     -0.2457
     45  N         40.9620   26.1810   23.7700 N.3   355  LEU355     -0.1245
     46  CA        41.3080   27.5750   24.0400 C.3   355  LEU355      0.1561
     47  C         42.3520   27.6640   25.1510 C.2   355  LEU355      0.2260
     48  O         42.1570   27.1460   26.2520 O.2   355  LEU355     -0.2867
     49  CB        40.0550   28.3500   24.4310 C.3   355  LEU355      0.0270
     50  CG        38.9900   28.3470   23.3370 C.3   355  LEU355      0.0019
     51  CD1       37.7490   29.1010   23.8080 C.3   355  LEU355      0.0001
     52  CD2       39.5680   28.9810   22.0640 C.3   355  LEU355      0.0001
     53  N         43.3000   30.0510   27.2420 N.3   357  GLU357     -0.1245
     54  CA        42.9360   30.7020   28.4970 C.3   357  GLU357      0.1567
     55  C         41.9930   29.9200   29.4120 C.2   357  GLU357      0.2260
     56  O         41.5240   30.4340   30.4320 O.2   357  GLU357     -0.2867
     57  CB        42.3480   32.0820   28.2210 C.3   357  GLU357      0.0388
     58  CG        41.4600   32.1610   27.0040 C.3   357  GLU357      0.1160
     59  CD        42.2470   32.0910   25.7030 C.2   357  GLU357      0.3649
     60  OE1       43.4500   31.8020   25.7180 O.co2 357  GLU357     -0.2457
     61  OE2       41.6250   32.3350   24.6380 O.co2 357  GLU357     -0.2457
     62  N         30.0240   34.2170   25.4430 N.3   546  HIS546     -0.1226
     63  CA        31.4320   34.0550   25.1120 C.3   546  HIS546      0.1752
     64  C         31.7000   34.6960   23.7790 C.2   546  HIS546      0.2596
     65  O         30.8320   34.7040   22.9040 O.2   546  HIS546     -0.2718
     66  CB        31.7710   32.5770   24.9980 C.3   546  HIS546      0.0759
     67  CG        32.3990   32.0010   26.2250 C.ar  546  HIS546      0.0818
     68  ND1       31.7590   31.0770   27.0260 N.ar  546  HIS546     -0.2268
     69  CD2       33.6240   32.1890   26.7720 C.ar  546  HIS546      0.1154
     70  CE1       32.5620   30.7220   28.0090 C.ar  546  HIS546      0.1986
     71  NE2       33.7000   31.3800   27.8800 N.ar  546  HIS546     -0.2212
     72  N         32.9010   35.2270   23.6110 N.am  547  GLU547     -0.1965
     73  CA        33.2440   35.8330   22.3370 C.3   547  GLU547      0.1733
     74  C         33.3380   34.6860   21.3310 C.2   547  GLU547      0.2616
     75  O         32.9140   34.8090   20.1820 O.2   547  GLU547     -0.2715
     76  CB        34.5830   36.5670   22.4360 C.3   547  GLU547      0.0429
     77  CG        34.4600   37.9770   23.0160 C.3   547  GLU547      0.1163
     78  CD        35.8050   38.5980   23.3450 C.2   547  GLU547      0.3649
     79  OE1       36.4140   39.2120   22.4400 O.co2 547  GLU547     -0.2457
     80  OE2       36.2540   38.4740   24.5070 O.co2 547  GLU547     -0.2457
     81  N         33.8570   33.5520   21.7870 N.am  548  TYR548     -0.1974
     82  CA        34.0140   32.4090   20.9080 C.3   548  TYR548      0.1639
     83  C         32.6870   31.8050   20.4700 C.2   548  TYR548      0.2290
     84  O         32.5860   31.3020   19.3530 O.2   548  TYR548     -0.2864
     85  CB        34.9440   31.3700   21.5600 C.3   548  TYR548      0.0560
     86  CG        34.2950   30.2460   22.3390 C.ar  548  TYR548     -0.0198
     87  CD1       33.7260   29.1520   21.6880 C.ar  548  TYR548     -0.0009
     88  CD2       34.3080   30.2470   23.7340 C.ar  548  TYR548     -0.0009
     89  CE1       33.1880   28.0920   22.4030 C.ar  548  TYR548      0.0417
     90  CE2       33.7710   29.1860   24.4610 C.ar  548  TYR548      0.0417
     91  CZ        33.2120   28.1110   23.7900 C.ar  548  TYR548      0.1957
     92  OH        32.6740   27.0600   24.5080 O.3   548  TYR548     -0.2866
     93  N         30.6080   35.4550   32.9640 N.3   585  ALA585     -0.1245
     94  CA        31.4520   35.3280   34.1390 C.3   585  ALA585      0.1562
     95  C         31.4850   36.7570   34.6740 C.2   585  ALA585      0.2260
     96  O         31.5880   37.7030   33.9020 O.2   585  ALA585     -0.2867
     97  CB        32.8420   34.8740   33.7390 C.3   585  ALA585      0.0290
     98  N         33.6960   38.6710   35.9500 N.3   587  GLY587     -0.1210
     99  CA        34.8200   39.5000   35.5420 C.3   587  GLY587      0.1956
    100  C         35.1240   39.5940   34.0570 C.2   587  GLY587      0.2612
    101  O         36.1510   40.1450   33.6610 O.2   587  GLY587     -0.2717
    102  N         34.2280   39.0620   33.2380 N.am  588  TYR588     -0.1962
    103  CA        34.3790   39.0560   31.7860 C.3   588  TYR588      0.1771
    104  C         33.7220   40.3040   31.1880 C.2   588  TYR588      0.2619
    105  O         32.5490   40.2940   30.8260 O.2   588  TYR588     -0.2715
    106  CB        33.7260   37.7830   31.2430 C.3   588  TYR588      0.0574
    107  CG        34.1230   37.3850   29.8430 C.ar  588  TYR588     -0.0198
    108  CD1       34.8520   38.2460   29.0240 C.ar  588  TYR588     -0.0009
    109  CD2       33.7470   36.1460   29.3260 C.ar  588  TYR588     -0.0009
    110  CE1       35.1930   37.8880   27.7320 C.ar  588  TYR588      0.0417
    111  CE2       34.0840   35.7800   28.0300 C.ar  588  TYR588      0.0417
    112  CZ        34.8050   36.6570   27.2420 C.ar  588  TYR588      0.1957
    113  OH        35.1230   36.3150   25.9530 O.3   588  TYR588     -0.2866
    114  N         34.4900   41.3790   31.0910 N.am  589  HIS589     -0.1973
    115  CA        33.9820   42.6410   30.5690 C.3   589  HIS589      0.1656
    116  C         33.2360   42.4890   29.2430 C.2   589  HIS589      0.2291
    117  O         32.0400   42.7780   29.1590 O.2   589  HIS589     -0.2864
    118  CB        35.1470   43.6360   30.4250 C.3   589  HIS589      0.0771
    119  CG        34.7840   44.9150   29.7280 C.ar  589  HIS589      0.0820
    120  ND1       33.9270   45.8470   30.2740 N.ar  589  HIS589     -0.2267
    121  CD2       35.1870   45.4260   28.5410 C.ar  589  HIS589      0.1154
    122  CE1       33.8170   46.8740   29.4530 C.ar  589  HIS589      0.1986
    123  NE2       34.5720   46.6440   28.3920 N.ar  589  HIS589     -0.2212
    124  N         39.5820   37.8470   17.8470 N.3   745  ARG745     -0.1231
    125  CA        40.1880   36.5280   17.6960 C.3   745  ARG745      0.1694
    126  C         39.2090   35.5120   17.1370 C.2   745  ARG745      0.2592
    127  O         39.6080   34.4340   16.7000 O.2   745  ARG745     -0.2718
    128  CB        40.6950   36.0070   19.0420 C.3   745  ARG745      0.0321
    129  CG        41.9530   36.6830   19.5620 C.3   745  ARG745      0.0489
    130  CD        42.3380   36.1410   20.9360 C.3   745  ARG745      0.2205
    131  NE        42.3210   34.6770   20.9930 N.pl3 745  ARG745     -0.0865
    132  CZ        41.8190   33.9740   22.0080 C.cat 745  ARG745      0.5346
    133  NH1       41.2900   34.6010   23.0550 N.pl3 745  ARG745      0.1354
    134  NH2       41.8510   32.6440   21.9830 N.pl3 745  ARG745      0.1354
    135  N         37.9250   35.8460   17.1360 N.am  746  PHE746     -0.1976
    136  CA        36.9280   34.9000   16.6550 C.3   746  PHE746      0.1639
    137  C         36.2850   35.1730   15.2910 C.2   746  PHE746      0.2290
    138  O         35.3040   34.5230   14.9030 O.2   746  PHE746     -0.2864
    139  CB        35.9020   34.6980   17.7670 C.3   746  PHE746      0.0560
    140  CG        36.5370   34.2430   19.0500 C.ar  746  PHE746     -0.0200
    141  CD1       37.0100   32.9350   19.1720 C.ar  746  PHE746     -0.0042
    142  CD2       36.7670   35.1420   20.0900 C.ar  746  PHE746     -0.0042
    143  CE1       37.7110   32.5270   20.3020 C.ar  746  PHE746     -0.0003
    144  CE2       37.4680   34.7450   21.2310 C.ar  746  PHE746     -0.0003
    145  CZ        37.9420   33.4350   21.3360 C.ar  746  PHE746     -0.0000
@<TRIPOS>BOND
     1   138   137    2
     2   137   136    1
     3   136   135    1
     4   136   139    1
     5   127   126    2
     6   135   126   am
     7   126   125    1
     8   125   124    1
     9   125   128    1
    10   139   140    1
    11   128   129    1
    12   140   141   ar
    13   140   142   ar
    14   141   143   ar
    15    84    83    2
    16   129   130    1
    17   142   144   ar
    18    75    74    2
    19   143   145   ar
    20    83    82    1
    21    82    85    1
    22    82    81    1
    23   130   131    1
    24   131   132    2
    25   144   145   ar
    26    74    81   am
    27    74    73    1
    28    85    86    1
    29    87    86   ar
    30    87    89   ar
    31   134   132    1
    32   132   133    1
    33    52    50    1
    34    73    76    1
    35    73    72    1
    36    86    88   ar
    37    89    91   ar
    38    76    77    1
    39    79    78   ar
    40    65    64    2
    41    77    78    1
    42    50    51    1
    43    50    49    1
    44    78    80   ar
    45    72    64   am
    46    88    90   ar
    47    45    46    1
    48    64    63    1
    49    91    90   ar
    50    91    92    1
    51    46    49    1
    52    46    47    1
    53    61    59   ar
    54    66    63    1
    55    66    67    1
    56    63    62    1
    57    47    48    2
    58    59    60   ar
    59    59    58    1
    60   113   112    1
    61    67    69   ar
    62    67    68   ar
    63    69    71   ar
    64    58    57    1
    65    68    70   ar
    66   112   110   ar
    67   112   111   ar
    68    53    54    1
    69    23    22    2
    70    24    22   am
    71   110   108   ar
    72    22    21    1
    73    71    70   ar
    74   111   109   ar
    75    57    54    1
    76   123   121   ar
    77   123   122   ar
    78    21    18    1
    79    54    55    1
    80   121   119   ar
    81   108   107   ar
    82    20    19    2
    83   117   116    2
    84    15    14   ar
    85   116   115    1
    86   109   107   ar
    87    55    56    2
    88   122   120   ar
    89   119   120   ar
    90   119   118    1
    91    18    19    1
    92    18    17    1
    93   107   106    1
    94    19    25   am
    95    12    11    2
    96    14    16   ar
    97    14    13    1
    98   118   115    1
    99   115   114    1
   100    17    11   am
   101   105   104    2
   102    11    10    1
   103   114   104   am
   104   104   103    1
   105   106   103    1
   106    25    26    1
   107    31    33   ar
   108    31    30   ar
   109    13    10    1
   110    26    29    1
   111    26    27    1
   112    33    35   ar
   113   103   102    1
   114    29    30    1
   115    10     9    1
   116    30    32   ar
   117    35    34   ar
   118    27    28    2
   119    93    94    1
   120     9     3   am
   121   102   100   am
   122    32    34   ar
   123   101   100    2
   124    97    94    1
   125    96    95    2
   126   100    99    1
   127    94    95    1
   128     3     4    2
   129     3     2    1
   130     2     5    1
   131     2     1    1
   132     5     6    1
   133    99    98    1
   134     8     6   am
   135    36    37    1
   136     6     7    2
   137    37    40    1
   138    37    38    1
   139    40    41    1
   140    38    39    2
   141    44    42   ar
   142    41    42    1
   143    42    43   ar
