@<TRIPOS>MOLECULE
tmp/1e1yA02.pdb
 174 166 0 0 0
SMALL
GASTEIGER

@<TRIPOS>ATOM
      1  N         25.9020   19.8850   37.2970 N.3    86  TYR86      -0.1241
      2  CA        24.7170   20.7350   37.1160 C.3    86  TYR86       0.1605
      3  C         23.4730   19.8650   37.0240 C.2    86  TYR86       0.2264
      4  O         22.9730   19.5980   35.9350 O.2    86  TYR86      -0.2867
      5  CB        24.8660   21.5720   35.8420 C.3    86  TYR86       0.0534
      6  CG        24.1020   22.8770   35.8350 C.ar   86  TYR86      -0.0201
      7  CD1       22.9930   23.0740   36.6660 C.ar   86  TYR86      -0.0009
      8  CD2       24.4760   23.9150   34.9790 C.ar   86  TYR86      -0.0009
      9  CE1       22.2790   24.2700   36.6420 C.ar   86  TYR86       0.0417
     10  CE2       23.7650   25.1190   34.9480 C.ar   86  TYR86       0.0417
     11  CZ        22.6700   25.2870   35.7810 C.ar   86  TYR86       0.1957
     12  OH        21.9680   26.4700   35.7560 O.3    86  TYR86      -0.2866
     13  N         28.6030   25.3950   35.8650 N.3   129  ASN129     -0.1225
     14  CA        28.6050   26.6260   35.0780 C.3   129  ASN129      0.1788
     15  C         27.8070   26.4680   33.7910 C.2   129  ASN129      0.2637
     16  O         27.1800   27.4230   33.3100 O.2   129  ASN129     -0.2714
     17  CB        30.0340   27.0270   34.7150 C.3   129  ASN129      0.1169
     18  CG        30.6930   27.8670   35.7820 C.2   129  ASN129      0.2627
     19  OD1       30.4140   29.0560   35.9050 O.2   129  ASN129     -0.2716
     20  ND2       31.5720   27.2510   36.5640 N.am  129  ASN129     -0.0877
     21  N         27.8280   25.2590   33.2350 N.am  130  GLY130     -0.1718
     22  CA        27.1110   25.0220   32.0050 C.2   130  GLY130      0.1480
     23  C         27.3450   23.6610   31.3780 C.2   130  GLY130      0.2821
     24  O         26.9670   22.6360   31.9420 O.2   130  GLY130     -0.2669
     25  N         27.9780   23.6530   30.2090 N.am  131  GLY131     -0.1920
     26  CA        28.2060   22.4180   29.4870 C.3   131  GLY131      0.1872
     27  C         28.9310   21.2950   30.1920 C.2   131  GLY131      0.2310
     28  O         28.4670   20.1480   30.1770 O.2   131  GLY131     -0.2863
     29  N         26.8290   20.0390   33.2230 N.3   134  ARG134     -0.1245
     30  CA        25.6220   19.3370   32.8100 C.3   134  ARG134      0.1563
     31  C         25.9380   18.0050   32.1280 C.2   134  ARG134      0.2260
     32  O         25.1180   17.0960   32.1420 O.2   134  ARG134     -0.2867
     33  CB        24.7760   20.2240   31.8880 C.3   134  ARG134      0.0307
     34  CG        23.4570   19.5800   31.4270 C.3   134  ARG134      0.0489
     35  CD        22.5970   19.0870   32.6050 C.3   134  ARG134      0.2205
     36  NE        22.0900   17.7280   32.3910 N.pl3 134  ARG134     -0.0865
     37  CZ        21.2530   17.0890   33.2070 C.cat 134  ARG134      0.5346
     38  NH1       20.8080   17.6710   34.3170 N.pl3 134  ARG134      0.1354
     39  NH2       20.8640   15.8550   32.9130 N.pl3 134  ARG134      0.1354
     40  N         15.9540   15.3250   28.9060 N.3   466  TRP466     -0.1241
     41  CA        15.9180   16.1410   27.6950 C.3   466  TRP466      0.1605
     42  C         14.9190   15.7930   26.5900 C.2   466  TRP466      0.2264
     43  O         15.0440   16.2630   25.4460 O.2   466  TRP466     -0.2867
     44  CB        17.3340   16.2450   27.1330 C.3   466  TRP466      0.0550
     45  CG        18.2340   16.9620   28.1000 C.ar  466  TRP466      0.0003
     46  CD1       19.3370   16.4600   28.7310 C.ar  466  TRP466      0.0946
     47  CD2       18.0620   18.2960   28.5900 C.ar  466  TRP466      0.0152
     48  NE1       19.8620   17.3990   29.5880 N.ar  466  TRP466     -0.2442
     49  CE2       19.0970   18.5360   29.5230 C.ar  466  TRP466      0.0810
     50  CE3       17.1320   19.3150   28.3380 C.ar  466  TRP466      0.0012
     51  CZ2       19.2300   19.7520   30.1990 C.ar  466  TRP466      0.0191
     52  CZ3       17.2560   20.5240   29.0100 C.ar  466  TRP466      0.0001
     53  CH2       18.3050   20.7340   29.9300 C.ar  466  TRP466      0.0015
     54  N         20.8860   30.0150   23.4340 N.3   542  VAL542     -0.1231
     55  CA        21.0670   29.9730   24.8800 C.3   542  VAL542      0.1692
     56  C         22.2980   29.1310   25.2030 C.2   542  VAL542      0.2592
     57  O         22.3980   27.9550   24.8110 O.2   542  VAL542     -0.2718
     58  CB        19.8470   29.3720   25.6080 C.3   542  VAL542      0.0266
     59  CG1       18.6680   30.3300   25.5230 C.3   542  VAL542      0.0020
     60  CG2       19.4880   28.0470   24.9990 C.3   542  VAL542      0.0020
     61  N         23.2320   29.7620   25.9110 N.am  543  LYS543     -0.1966
     62  CA        24.4940   29.1560   26.3340 C.3   543  LYS543      0.1728
     63  C         25.2080   30.2860   27.0580 C.2   543  LYS543      0.2616
     64  O         24.7430   31.4220   27.0320 O.2   543  LYS543     -0.2715
     65  CB        25.3220   28.7210   25.1200 C.3   543  LYS543      0.0311
     66  CG        25.3410   29.7550   24.0000 C.3   543  LYS543      0.0038
     67  CD        26.1650   29.2840   22.8290 C.3   543  LYS543      0.0206
     68  CE        25.2820   28.6280   21.7860 C.3   543  LYS543      0.1093
     69  NZ        25.3630   27.1450   21.8590 N.3   543  LYS543     -0.1314
     70  N         26.3290   29.9950   27.7000 N.am  544  ARG544     -0.1977
     71  CA        27.0470   31.0510   28.3920 C.3   544  ARG544      0.1597
     72  C         27.5310   32.0820   27.3680 C.2   544  ARG544      0.2287
     73  O         27.7650   31.7430   26.2040 O.2   544  ARG544     -0.2864
     74  CB        28.2230   30.4560   29.1690 C.3   544  ARG544      0.0334
     75  CG        27.8010   29.5560   30.3250 C.3   544  ARG544      0.0492
     76  CD        27.3740   30.3750   31.5560 C.3   544  ARG544      0.2205
     77  NE        28.4110   31.3150   31.9800 N.pl3 544  ARG544     -0.0865
     78  CZ        29.1230   31.1990   33.0990 C.cat 544  ARG544      0.5346
     79  NH1       28.9140   30.1810   33.9210 N.pl3 544  ARG544      0.1354
     80  NH2       30.0570   32.0930   33.3910 N.pl3 544  ARG544      0.1354
     81  N         31.6680   31.8740   21.3270 N.3   549  LYS549     -0.1245
     82  CA        30.3460   31.3460   20.9820 C.3   549  LYS549      0.1561
     83  C         29.6400   32.3130   20.0320 C.2   549  LYS549      0.2260
     84  O         28.5740   32.0180   19.4930 O.2   549  LYS549     -0.2867
     85  CB        29.5000   31.1460   22.2380 C.3   549  LYS549      0.0271
     86  CG        29.9620   29.9860   23.1070 C.3   549  LYS549      0.0035
     87  CD        29.0830   29.8240   24.3280 C.3   549  LYS549      0.0206
     88  CE        29.6550   28.8010   25.2930 C.3   549  LYS549      0.1093
     89  NZ        29.4030   27.3950   24.8560 N.3   549  LYS549     -0.1314
     90  N         19.4660   32.1830   32.3860 N.3   623  TYR623     -0.1227
     91  CA        19.3960   30.9070   31.6910 C.3   623  TYR623      0.1736
     92  C         20.0170   29.8430   32.5810 C.2   623  TYR623      0.2595
     93  O         21.1220   30.0180   33.0990 O.2   623  TYR623     -0.2718
     94  CB        20.1400   30.9770   30.3570 C.3   623  TYR623      0.0548
     95  CG        20.2310   29.6420   29.6380 C.ar  623  TYR623     -0.0200
     96  CD1       19.0820   28.9700   29.2180 C.ar  623  TYR623     -0.0009
     97  CD2       21.4690   29.0580   29.3680 C.ar  623  TYR623     -0.0009
     98  CE1       19.1710   27.7490   28.5430 C.ar  623  TYR623      0.0417
     99  CE2       21.5670   27.8440   28.6980 C.ar  623  TYR623      0.0417
    100  CZ        20.4190   27.1980   28.2900 C.ar  623  TYR623      0.1957
    101  OH        20.5250   25.9990   27.6270 O.3   623  TYR623     -0.2866
    102  N         19.3020   28.7370   32.7430 N.am  624  ARG624     -0.1966
    103  CA        19.7460   27.6370   33.5920 C.3   624  ARG624      0.1729
    104  C         19.0830   26.3630   33.1060 C.2   624  ARG624      0.2616
    105  O         18.2300   26.4100   32.2230 O.2   624  ARG624     -0.2715
    106  CB        19.3340   27.9130   35.0410 C.3   624  ARG624      0.0348
    107  CG        17.8240   28.1210   35.2030 C.3   624  ARG624      0.0492
    108  CD        17.5030   29.1900   36.2330 C.3   624  ARG624      0.2205
    109  NE        16.0660   29.3020   36.4550 N.pl3 624  ARG624     -0.0865
    110  CZ        15.2730   30.1650   35.8250 C.cat 624  ARG624      0.5346
    111  NH1       15.7640   31.0080   34.9250 N.pl3 624  ARG624      0.1354
    112  NH2       13.9780   30.1820   36.0880 N.pl3 624  ARG624      0.1354
    113  N         19.4480   25.2320   33.7020 N.am  625  VAL625     -0.1977
    114  CA        18.8860   23.9480   33.2950 C.3   625  VAL625      0.1596
    115  C         17.3580   23.9660   33.2620 C.2   625  VAL625      0.2287
    116  O         16.7540   23.5560   32.2610 O.2   625  VAL625     -0.2864
    117  CB        19.3580   22.8020   34.2220 C.3   625  VAL625      0.0276
    118  CG1       18.6400   21.5200   33.8740 C.3   625  VAL625      0.0022
    119  CG2       20.8570   22.6020   34.0780 C.3   625  VAL625      0.0022
    120  N         16.1870   25.8430   30.3400 N.3   628  ALA628     -0.1245
    121  CA        16.5180   25.1150   29.1240 C.3   628  ALA628      0.1562
    122  C         15.4200   24.0930   28.8560 C.2   628  ALA628      0.2260
    123  O         15.0240   23.8720   27.7040 O.2   628  ALA628     -0.2867
    124  CB        17.8560   24.4130   29.2810 C.3   628  ALA628      0.0290
    125  N         24.0360   27.7060   16.7850 N.3   640  GLN640     -0.1245
    126  CA        25.2700   27.0420   17.2240 C.3   640  GLN640      0.1566
    127  C         26.3370   27.5940   16.2920 C.2   640  GLN640      0.2260
    128  O         26.8770   26.8860   15.4530 O.2   640  GLN640     -0.2867
    129  CB        25.1350   25.5300   17.0480 C.3   640  GLN640      0.0367
    130  CG        23.8590   24.9540   17.6550 C.3   640  GLN640      0.0905
    131  CD        23.8010   25.1390   19.1560 C.2   640  GLN640      0.2608
    132  OE1       24.8320   25.1730   19.8250 O.2   640  GLN640     -0.2717
    133  NE2       22.5900   25.2630   19.6960 N.am  640  GLN640     -0.0878
    134  N         34.5110   25.3600   19.7360 N.3   647  GLU647     -0.1245
    135  CA        33.5680   24.6450   20.6000 C.3   647  GLU647      0.1567
    136  C         33.8450   23.1380   20.5470 C.2   647  GLU647      0.2260
    137  O         33.4100   22.4470   19.6190 O.2   647  GLU647     -0.2867
    138  CB        32.1280   24.9180   20.1630 C.3   647  GLU647      0.0388
    139  CG        31.0810   24.3680   21.1220 C.3   647  GLU647      0.1160
    140  CD        30.8820   25.2630   22.3260 C.2   647  GLU647      0.3649
    141  OE1       30.0870   26.2180   22.2230 O.co2 647  GLU647     -0.2457
    142  OE2       31.5200   25.0220   23.3730 O.co2 647  GLU647     -0.2457
    143  N         29.7880   20.8240   22.4500 N.3   650  GLY650     -0.1210
    144  CA        28.4870   21.4560   22.5880 C.3   650  GLY650      0.1956
    145  C         27.5070   20.3590   22.9480 C.2   650  GLY650      0.2613
    146  O         27.7320   19.2060   22.5820 O.2   650  GLY650     -0.2717
    147  N         26.4470   20.6910   23.6910 N.am  651  THR651     -0.1938
    148  CA        25.4220   19.7120   24.0780 C.3   651  THR651      0.2028
    149  C         24.0560   20.3520   23.9250 C.2   651  THR651      0.2643
    150  O         23.0380   19.6700   23.7860 O.2   651  THR651     -0.2714
    151  CB        25.5730   19.2340   25.5430 C.3   651  THR651      0.1808
    152  OG1       25.8550   20.3500   26.3950 O.3   651  THR651     -0.2208
    153  CG2       26.6920   18.1940   25.6480 C.3   651  THR651      0.0379
    154  N         24.0400   21.6790   23.9590 N.am  652  GLY652     -0.1939
    155  CA        22.7950   22.3910   23.7890 C.3   652  GLY652      0.2014
    156  C         22.3040   22.0510   22.4000 C.2   652  GLY652      0.2638
    157  O         21.1080   21.8360   22.1960 O.2   652  GLY652     -0.2714
    158  N         23.2440   21.9960   21.4540 N.am  653  ASN653     -0.1972
    159  CA        22.9400   21.6800   20.0610 C.3   653  ASN653      0.1688
    160  C         22.1730   20.3730   19.9890 C.2   653  ASN653      0.2292
    161  O         21.2150   20.2480   19.2160 O.2   653  ASN653     -0.2864
    162  CB        24.2300   21.5820   19.2240 C.3   653  ASN653      0.1181
    163  CG        25.3130   20.7290   19.8850 C.2   653  ASN653      0.2629
    164  OD1       25.0940   20.1210   20.9350 O.2   653  ASN653     -0.2716
    165  ND2       26.4860   20.6840   19.2710 N.am  653  ASN653     -0.0877
    166  N         20.3940   19.0230   22.4860 N.3   655  LYS655     -0.1245
    167  CA        19.0980   19.1790   23.1360 C.3   655  LYS655      0.1561
    168  C         18.0460   19.6840   22.1460 C.2   655  LYS655      0.2260
    169  O         16.9220   19.1720   22.1060 O.2   655  LYS655     -0.2867
    170  CB        19.2150   20.1530   24.3070 C.3   655  LYS655      0.0271
    171  CG        20.0180   19.6170   25.4750 C.3   655  LYS655      0.0035
    172  CD        20.4540   20.7360   26.3960 C.3   655  LYS655      0.0206
    173  CE        21.6120   20.2790   27.2580 C.3   655  LYS655      0.1093
    174  NZ        21.8790   21.4470   28.0340 N.3   655  LYS655     -0.1314
@<TRIPOS>BOND
     1   128   127    2
     2   127   126    1
     3   125   126    1
     4   129   126    1
     5   129   130    1
     6   130   131    1
     7   131   133   am
     8   131   132    2
     9   161   160    2
    10   162   163    1
    11   162   159    1
    12   165   163   am
    13    84    83    2
    14   137   136    2
    15   134   135    1
    16   163   164    2
    17   160   159    1
    18    83    82    1
    19   159   158    1
    20   138   135    1
    21   138   139    1
    22   136   135    1
    23    82    81    1
    24    82    85    1
    25   139   140    1
    26   158   156   am
    27    68    69    1
    28    68    67    1
    29   169   168    2
    30   168   167    1
    31   157   156    2
    32   141   140   ar
    33    85    86    1
    34   140   142   ar
    35   156   155    1
    36   143   144    1
    37   166   167    1
    38   146   145    2
    39   144   145    1
    40    67    66    1
    41   145   147   am
    42    86    87    1
    43   167   170    1
    44    54    55    1
    45   147   148    1
    46   150   149    2
    47   155   154    1
    48   149   154   am
    49   149   148    1
    50    66    65    1
    51   148   151    1
    52   170   171    1
    53    87    88    1
    54    57    56    2
    55    89    88    1
    56    55    56    1
    57    55    58    1
    58    60    58    1
    59    65    62    1
    60    56    61   am
    61    43    42    2
    62   171   172    1
    63    59    58    1
    64   151   153    1
    65   151   152    1
    66    61    62    1
    67    73    72    2
    68    62    63    1
    69   172   173    1
    70    42    41    1
    71    64    63    2
    72    63    70   am
    73    44    41    1
    74    44    45    1
    75   173   174    1
    76    72    71    1
    77   101   100    1
    78    41    40    1
    79    70    71    1
    80   123   122    2
    81    45    47   ar
    82    45    46   ar
    83   100    98   ar
    84   100    99   ar
    85    50    47   ar
    86    50    52   ar
    87    71    74    1
    88    98    96   ar
    89    47    49   ar
    90    99    97   ar
    91    46    48   ar
    92   122   121    1
    93    52    53   ar
    94   121   124    1
    95   121   120    1
    96    74    75    1
    97    96    95   ar
    98    97    95   ar
    99    26    27    1
   100    26    25    1
   101    49    48   ar
   102    49    51   ar
   103    95    94    1
   104    53    51   ar
   105    28    27    2
   106    25    23   am
   107    75    76    1
   108    94    91    1
   109    23    24    2
   110    23    22    1
   111    34    33    1
   112    34    35    1
   113    76    77    1
   114    91    90    1
   115    91    92    1
   116    33    30    1
   117    77    78    2
   118    22    21    2
   119    31    32    2
   120    31    30    1
   121   105   104    2
   122   116   115    2
   123    36    35    1
   124    36    37    2
   125    92   102   am
   126    92    93    2
   127   102   103    1
   128    30    29    1
   129    39    37    1
   130    78    80    1
   131    78    79    1
   132   104   103    1
   133   104   113   am
   134    37    38    1
   135    21    15    1
   136   115   114    1
   137   114   113    1
   138   114   117    1
   139    16    15    2
   140   103   106    1
   141    15    14    1
   142   118   117    1
   143   119   117    1
   144    17    14    1
   145    17    18    1
   146   111   110    1
   147    10     8   ar
   148    10    11   ar
   149     8     6   ar
   150   106   107    1
   151    14    13    1
   152   107   108    1
   153    12    11    1
   154    11     9   ar
   155    18    19    2
   156    18    20   am
   157   110   112    1
   158   110   109    2
   159     6     5    1
   160     6     7   ar
   161     5     2    1
   162     4     3    2
   163   108   109    1
   164     9     7   ar
   165     3     2    1
   166     2     1    1
