@<TRIPOS>MOLECULE
tmp/1e1yA01.pdb
 120 114 0 0 0
SMALL
GASTEIGER

@<TRIPOS>ATOM
      1  N         27.9780   23.6530   30.2090 N.3   131  GLY131     -0.1210
      2  CA        28.2060   22.4180   29.4870 C.3   131  GLY131      0.1956
      3  C         28.9310   21.2950   30.1920 C.2   131  GLY131      0.2611
      4  O         28.4670   20.1480   30.1770 O.2   131  GLY131     -0.2717
      5  N         30.0780   21.6070   30.7880 N.am  132  LEU132     -0.1979
      6  CA        30.8800   20.6060   31.4900 C.3   132  LEU132      0.1596
      7  C         30.1220   20.0200   32.6820 C.2   132  LEU132      0.2287
      8  O         30.0930   18.8060   32.8810 O.2   132  LEU132     -0.2864
      9  CB        32.1930   21.2410   31.9620 C.3   132  LEU132      0.0297
     10  CG        33.1880   20.4070   32.7740 C.3   132  LEU132      0.0022
     11  CD1       34.6140   20.8040   32.3870 C.3   132  LEU132      0.0001
     12  CD2       32.9690   20.6460   34.2630 C.3   132  LEU132      0.0001
     13  N         27.1230   17.8870   31.5360 N.3   135  LEU135     -0.1245
     14  CA        27.5250   16.6420   30.8850 C.3   135  LEU135      0.1561
     15  C         27.6740   15.5890   31.9870 C.2   135  LEU135      0.2260
     16  O         27.2280   14.4460   31.8460 O.2   135  LEU135     -0.2867
     17  CB        28.8610   16.8260   30.1520 C.3   135  LEU135      0.0270
     18  CG        29.4830   15.5990   29.4760 C.3   135  LEU135      0.0019
     19  CD1       28.7020   15.2750   28.2080 C.3   135  LEU135      0.0001
     20  CD2       30.9540   15.8620   29.1480 C.3   135  LEU135      0.0001
     21  N         33.4210   29.9100   33.0380 N.3   269  ASP269     -0.1225
     22  CA        33.1410   28.8510   32.0710 C.3   269  ASP269      0.1805
     23  C         34.1950   28.9470   30.9660 C.2   269  ASP269      0.2597
     24  O         34.2850   29.9490   30.2680 O.2   269  ASP269     -0.2718
     25  CB        31.7370   29.0700   31.5000 C.3   269  ASP269      0.1424
     26  CG        31.3800   28.0880   30.4080 C.2   269  ASP269      0.3668
     27  OD1       31.7450   28.3480   29.2410 O.co2 269  ASP269     -0.2456
     28  OD2       30.7500   27.0510   30.7190 O.co2 269  ASP269     -0.2456
     29  N         35.0230   27.9010   30.8260 N.am  270  ASN270     -0.1974
     30  CA        36.0630   27.9030   29.8100 C.3   270  ASN270      0.1688
     31  C         37.1480   28.9610   30.0500 C.2   270  ASN270      0.2292
     32  O         37.6980   29.5310   29.1000 O.2   270  ASN270     -0.2864
     33  CB        35.4560   28.1210   28.4230 C.3   270  ASN270      0.1181
     34  CG        35.0590   26.8290   27.7490 C.2   270  ASN270      0.2629
     35  OD1       35.9110   26.0930   27.2620 O.2   270  ASN270     -0.2716
     36  ND2       33.7610   26.5500   27.7090 N.am  270  ASN270     -0.0877
     37  N         38.0520   19.1480   27.4680 N.3   352  HIS352     -0.1226
     38  CA        36.8270   19.8270   27.0240 C.3   352  HIS352      0.1752
     39  C         37.0180   21.1460   26.2810 C.2   352  HIS352      0.2596
     40  O         36.0340   21.8130   25.9690 O.2   352  HIS352     -0.2718
     41  CB        35.9050   20.1140   28.2160 C.3   352  HIS352      0.0759
     42  CG        35.5120   18.8990   28.9870 C.ar  352  HIS352      0.0818
     43  ND1       34.3290   18.2240   28.7680 N.ar  352  HIS352     -0.2268
     44  CD2       36.1410   18.2410   29.9890 C.ar  352  HIS352      0.1154
     45  CE1       34.2460   17.2040   29.6010 C.ar  352  HIS352      0.1986
     46  NE2       35.3350   17.1900   30.3530 N.ar  352  HIS352     -0.2212
     47  N         38.2560   21.5450   26.0160 N.am  353  THR353     -0.1953
     48  CA        38.4830   22.8030   25.3090 C.3   353  THR353      0.1897
     49  C         39.8970   22.9030   24.7620 C.2   353  THR353      0.2313
     50  O         40.8190   22.2730   25.2800 O.2   353  THR353     -0.2863
     51  CB        38.2170   24.0280   26.2220 C.3   353  THR353      0.1794
     52  OG1       38.2910   25.2270   25.4410 O.3   353  THR353     -0.2208
     53  CG2       39.2400   24.0920   27.3520 C.3   353  THR353      0.0378
     54  N         35.8500   15.2870   23.2560 N.3   430  VAL430     -0.1245
     55  CA        34.4120   15.1270   23.4070 C.3   430  VAL430      0.1561
     56  C         33.6020   15.2420   22.1170 C.2   430  VAL430      0.2260
     57  O         32.3770   15.3800   22.1570 O.2   430  VAL430     -0.2867
     58  CB        33.8650   16.1320   24.4650 C.3   430  VAL430      0.0252
     59  CG1       34.4280   15.7890   25.8430 C.3   430  VAL430      0.0019
     60  CG2       34.2550   17.5670   24.1070 C.3   430  VAL430      0.0019
     61  N         30.2060   13.5910   22.9960 N.3   459  ASN459     -0.1240
     62  CA        29.2520   13.9090   24.0500 C.3   459  ASN459      0.1653
     63  C         27.8320   13.4560   23.7230 C.2   459  ASN459      0.2266
     64  O         27.5420   12.9810   22.6230 O.2   459  ASN459     -0.2867
     65  CB        29.2510   15.4220   24.3340 C.3   459  ASN459      0.1155
     66  CG        30.4350   15.8580   25.1740 C.2   459  ASN459      0.2627
     67  OD1       30.7210   17.0550   25.3050 O.2   459  ASN459     -0.2716
     68  ND2       31.1320   14.8900   25.7460 N.am  459  ASN459     -0.0877
     69  N         33.8570   33.5520   21.7870 N.3   548  TYR548     -0.1227
     70  CA        34.0140   32.4090   20.9080 C.3   548  TYR548      0.1736
     71  C         32.6870   31.8050   20.4700 C.2   548  TYR548      0.2595
     72  O         32.5860   31.3020   19.3530 O.2   548  TYR548     -0.2718
     73  CB        34.9440   31.3700   21.5600 C.3   548  TYR548      0.0548
     74  CG        34.2950   30.2460   22.3390 C.ar  548  TYR548     -0.0200
     75  CD1       33.7260   29.1520   21.6880 C.ar  548  TYR548     -0.0009
     76  CD2       34.3080   30.2470   23.7340 C.ar  548  TYR548     -0.0009
     77  CE1       33.1880   28.0920   22.4030 C.ar  548  TYR548      0.0417
     78  CE2       33.7710   29.1860   24.4610 C.ar  548  TYR548      0.0417
     79  CZ        33.2120   28.1110   23.7900 C.ar  548  TYR548      0.1957
     80  OH        32.6740   27.0600   24.5080 O.3   548  TYR548     -0.2866
     81  N         31.6680   31.8740   21.3270 N.am  549  LYS549     -0.1980
     82  CA        30.3460   31.3460   20.9820 C.3   549  LYS549      0.1596
     83  C         29.6400   32.3130   20.0320 C.2   549  LYS549      0.2287
     84  O         28.5740   32.0180   19.4930 O.2   549  LYS549     -0.2864
     85  CB        29.5000   31.1460   22.2380 C.3   549  LYS549      0.0298
     86  CG        29.9620   29.9860   23.1070 C.3   549  LYS549      0.0038
     87  CD        29.0830   29.8240   24.3280 C.3   549  LYS549      0.0206
     88  CE        29.6550   28.8010   25.2930 C.3   549  LYS549      0.1093
     89  NZ        29.4030   27.3950   24.8560 N.3   549  LYS549     -0.1314
     90  N         34.5110   25.3600   19.7360 N.3   647  GLU647     -0.1231
     91  CA        33.5680   24.6450   20.6000 C.3   647  GLU647      0.1699
     92  C         33.8450   23.1380   20.5470 C.2   647  GLU647      0.2592
     93  O         33.4100   22.4470   19.6190 O.2   647  GLU647     -0.2718
     94  CB        32.1280   24.9180   20.1630 C.3   647  GLU647      0.0402
     95  CG        31.0810   24.3680   21.1220 C.3   647  GLU647      0.1161
     96  CD        30.8820   25.2630   22.3260 C.2   647  GLU647      0.3649
     97  OE1       30.0870   26.2180   22.2230 O.co2 647  GLU647     -0.2457
     98  OE2       31.5200   25.0220   23.3730 O.co2 647  GLU647     -0.2457
     99  N         34.5630   22.6370   21.5530 N.am  648  ALA648     -0.1966
    100  CA        34.9360   21.2250   21.6280 C.3   648  ALA648      0.1728
    101  C         33.8410   20.2860   21.1610 C.2   648  ALA648      0.2617
    102  O         34.0800   19.4070   20.3360 O.2   648  ALA648     -0.2715
    103  CB        35.3510   20.8660   23.0420 C.3   648  ALA648      0.0334
    104  N         32.6380   20.4760   21.6800 N.am  649  SER649     -0.1936
    105  CA        31.5340   19.6220   21.2880 C.3   649  SER649      0.2055
    106  C         30.1720   20.2980   21.2950 C.2   649  SER649      0.2644
    107  O         29.4890   20.3470   20.2720 O.2   649  SER649     -0.2714
    108  CB        31.4810   18.3980   22.1920 C.3   649  SER649      0.2130
    109  OG        30.2630   17.7010   21.9970 O.3   649  SER649     -0.2179
    110  N         29.7880   20.8240   22.4500 N.am  650  GLY650     -0.1939
    111  CA        28.4870   21.4560   22.5880 C.3   650  GLY650      0.2014
    112  C         27.5070   20.3590   22.9480 C.2   650  GLY650      0.2639
    113  O         27.7320   19.2060   22.5820 O.2   650  GLY650     -0.2714
    114  N         26.4470   20.6910   23.6910 N.am  651  THR651     -0.1950
    115  CA        25.4220   19.7120   24.0780 C.3   651  THR651      0.1897
    116  C         24.0560   20.3520   23.9250 C.2   651  THR651      0.2313
    117  O         23.0380   19.6700   23.7860 O.2   651  THR651     -0.2863
    118  CB        25.5730   19.2340   25.5430 C.3   651  THR651      0.1794
    119  OG1       25.8550   20.3500   26.3950 O.3   651  THR651     -0.2208
    120  CG2       26.6920   18.1940   25.6480 C.3   651  THR651      0.0378
@<TRIPOS>BOND
     1    72    71    2
     2    84    83    2
     3    93    92    2
     4    90    91    1
     5    83    82    1
     6    94    91    1
     7    94    95    1
     8   107   106    2
     9   102   101    2
    10    71    70    1
    11    71    81   am
    12    92    91    1
    13    92    99   am
    14    70    73    1
    15    70    69    1
    16    82    81    1
    17    82    85    1
    18    95    96    1
    19   101   100    1
    20   101   104   am
    21   105   106    1
    22   105   104    1
    23   105   108    1
    24   106   110   am
    25    99   100    1
    26    73    74    1
    27   100   103    1
    28    75    74   ar
    29    75    77   ar
    30   109   108    1
    31    56    57    2
    32    56    55    1
    33    97    96   ar
    34    85    86    1
    35    96    98   ar
    36    74    76   ar
    37    77    79   ar
    38   110   111    1
    39   113   112    2
    40   111   112    1
    41    64    63    2
    42   112   114   am
    43    61    62    1
    44    86    87    1
    45    54    55    1
    46    55    58    1
    47   114   115    1
    48    63    62    1
    49    76    78   ar
    50   117   116    2
    51    79    78   ar
    52    79    80    1
    53   116   115    1
    54    62    65    1
    55   115   118    1
    56    60    58    1
    57    87    88    1
    58    65    66    1
    59    58    59    1
    60    49    50    2
    61    49    48    1
    62    89    88    1
    63    66    67    2
    64    66    68   am
    65    48    47    1
    66    48    51    1
    67    52    51    1
    68   118   120    1
    69   118   119    1
    70    40    39    2
    71    47    39   am
    72    51    53    1
    73    39    38    1
    74    38    37    1
    75    38    41    1
    76    35    34    2
    77    36    34   am
    78    34    33    1
    79    19    18    1
    80    41    42    1
    81    33    30    1
    82    43    42   ar
    83    43    45   ar
    84    42    44   ar
    85    32    31    2
    86    20    18    1
    87    27    26   ar
    88    18    17    1
    89     2     3    1
    90     2     1    1
    91    45    46   ar
    92    30    31    1
    93    30    29    1
    94    44    46   ar
    95    17    14    1
    96     4     3    2
    97     3     5   am
    98    24    23    2
    99    26    28   ar
   100    26    25    1
   101     5     6    1
   102    29    23   am
   103    14    13    1
   104    14    15    1
   105    23    22    1
   106     6     9    1
   107     6     7    1
   108    25    22    1
   109    16    15    2
   110     9    10    1
   111    22    21    1
   112    11    10    1
   113     7     8    2
   114    10    12    1
