@<TRIPOS>MOLECULE
tmp/1e20A00.pdb
 124 116 0 0 0
SMALL
GASTEIGER

@<TRIPOS>ATOM
      1  N         56.0660   16.4470  -18.3210 N.3    10  SER10      -0.1202
      2  CA        56.6230   17.8140  -18.4320 C.3    10  SER10       0.2020
      3  C         58.0240   17.6900  -19.0560 C.2    10  SER10       0.2619
      4  O         58.4860   16.5850  -19.3690 O.2    10  SER10      -0.2717
      5  CB        56.6160   18.5790  -17.0950 C.3    10  SER10       0.2103
      6  OG        57.0730   17.7810  -16.0310 O.3    10  SER10      -0.2182
      7  N         58.6730   18.8200  -19.2130 N.am   11  GLY11      -0.1942
      8  CA        59.9300   18.9250  -19.9820 C.3    11  GLY11       0.2014
      9  C         61.1830   18.3790  -19.3590 C.2    11  GLY11       0.2640
     10  O         62.1550   19.1180  -19.0910 O.2    11  GLY11      -0.2714
     11  N         61.1770   17.0830  -19.0650 N.am   12  SER12      -0.1935
     12  CA        62.3330   16.3920  -18.5240 C.3    12  SER12       0.2055
     13  C         62.7410   15.3360  -19.5710 C.2    12  SER12       0.2643
     14  O         61.9150   14.6950  -20.2210 O.2    12  SER12      -0.2714
     15  CB        62.1230   15.6750  -17.2170 C.3    12  SER12       0.2130
     16  OG        61.9290   16.5870  -16.1220 O.3    12  SER12      -0.2179
     17  N         64.0230   15.0380  -19.5950 N.am   13  VAL13      -0.1963
     18  CA        64.5630   13.9720  -20.4200 C.3    13  VAL13       0.1727
     19  C         63.8330   12.6450  -20.0880 C.2    13  VAL13       0.2616
     20  O         63.5350   11.9880  -21.0630 O.2    13  VAL13      -0.2715
     21  CB        66.0660   13.6940  -20.2020 C.3    13  VAL13       0.0290
     22  CG1       66.4820   12.6470  -21.2460 C.3    13  VAL13       0.0023
     23  CG2       66.9270   14.9140  -20.4780 C.3    13  VAL13       0.0023
     24  N         63.4550   12.3470  -18.8880 N.am   14  ALA14      -0.1977
     25  CA        62.6350   11.1650  -18.5690 C.3    14  ALA14       0.1597
     26  C         61.3000   11.0590  -19.2640 C.2    14  ALA14       0.2287
     27  O         60.7810    9.9170  -19.4150 O.2    14  ALA14      -0.2864
     28  CB        62.4190   11.0810  -17.0710 C.3    14  ALA14       0.0319
     29  N         53.2490   18.8820  -21.9220 N.3    36  THR36      -0.1218
     30  CA        53.6590   20.2790  -22.0360 C.3    36  THR36       0.1862
     31  C         54.3990   20.4040  -23.3570 C.2    36  THR36       0.2287
     32  O         54.8100   19.4100  -23.9710 O.2    36  THR36      -0.2866
     33  CB        54.5730   20.7900  -20.9290 C.3    36  THR36       0.1770
     34  OG1       55.8170   20.0460  -21.0200 O.3    36  THR36      -0.2211
     35  CG2       53.9720   20.5840  -19.5490 C.3    36  THR36       0.0375
     36  N         57.4260   21.5980  -23.7950 N.3    38  SER38      -0.1217
     37  CA        58.7980   21.1120  -23.6850 C.3    38  SER38       0.1889
     38  C         58.9460   19.5980  -23.6710 C.2    38  SER38       0.2288
     39  O         59.8980   19.0620  -24.2420 O.2    38  SER38      -0.2866
     40  CB        59.4680   21.6940  -22.4190 C.3    38  SER38       0.2089
     41  OG        59.3820   23.1030  -22.5650 O.3    38  SER38      -0.2183
     42  N         61.2430   15.5640  -25.9260 N.3    42  PHE42      -0.1241
     43  CA        61.6430   14.2460  -25.4510 C.3    42  PHE42       0.1605
     44  C         60.7080   13.0150  -25.6260 C.2    42  PHE42       0.2264
     45  O         61.1170   11.8740  -25.3670 O.2    42  PHE42      -0.2867
     46  CB        61.9350   14.3870  -23.9500 C.3    42  PHE42       0.0534
     47  CG        62.8480   15.5600  -23.6380 C.ar   42  PHE42      -0.0203
     48  CD1       64.2040   15.4820  -23.9570 C.ar   42  PHE42      -0.0042
     49  CD2       62.3230   16.7050  -23.0390 C.ar   42  PHE42      -0.0042
     50  CE1       65.0440   16.5620  -23.6720 C.ar   42  PHE42      -0.0003
     51  CE2       63.1600   17.7840  -22.7540 C.ar   42  PHE42      -0.0003
     52  CZ        64.5210   17.7130  -23.0700 C.ar   42  PHE42      -0.0000
     53  N         58.9810   18.1120  -14.1290 N.3    89  SER89      -0.1202
     54  CA        60.1490   19.0210  -14.2240 C.3    89  SER89       0.2020
     55  C         60.2530   20.0300  -13.0850 C.2    89  SER89       0.2619
     56  O         59.2870   20.3060  -12.3670 O.2    89  SER89      -0.2717
     57  CB        60.1260   19.7370  -15.5860 C.3    89  SER89       0.2103
     58  OG        59.1530   20.7720  -15.5720 O.3    89  SER89      -0.2182
     59  N         61.4730   20.5420  -12.9450 N.am   90  ALA90      -0.1965
     60  CA        61.7720   21.5750  -11.9540 C.3    90  ALA90       0.1728
     61  C         60.8860   22.8180  -12.3070 C.2    90  ALA90       0.2616
     62  O         60.3770   23.4070  -11.3600 O.2    90  ALA90      -0.2715
     63  CB        63.2550   21.9470  -11.9960 C.3    90  ALA90       0.0334
     64  N         60.7870   23.1710  -13.5540 N.am   91  ASN91      -0.1958
     65  CA        60.0040   24.3200  -13.9760 C.3    91  ASN91       0.1819
     66  C         58.4870   24.1520  -13.6860 C.2    91  ASN91       0.2621
     67  O         57.8890   25.0290  -13.0680 O.2    91  ASN91      -0.2715
     68  CB        60.1360   24.5420  -15.4690 C.3    91  ASN91       0.1195
     69  CG        59.6080   25.9130  -15.8950 C.2    91  ASN91       0.2630
     70  OD1       59.8840   26.9130  -15.2340 O.2    91  ASN91      -0.2716
     71  ND2       58.8930   25.9170  -16.9990 N.am   91  ASN91      -0.0877
     72  N         57.9630   22.9480  -13.9760 N.am   92  THR92      -0.1951
     73  CA        56.5380   22.6930  -13.6840 C.3    92  THR92       0.1897
     74  C         56.2870   22.6760  -12.2130 C.2    92  THR92       0.2313
     75  O         55.2980   23.1940  -11.6630 O.2    92  THR92      -0.2863
     76  CB        56.0030   21.4810  -14.4290 C.3    92  THR92       0.1794
     77  OG1       55.9770   21.8090  -15.8050 O.3    92  THR92      -0.2208
     78  CG2       54.5310   21.2060  -13.9990 C.3    92  THR92       0.0378
     79  N         56.1020   26.2330  -11.2010 N.3    95  LYS95      -0.1245
     80  CA        54.8220   26.8210  -11.6370 C.3    95  LYS95       0.1561
     81  C         53.6340   26.3230  -10.8230 C.2    95  LYS95       0.2260
     82  O         52.7850   27.1470  -10.4800 O.2    95  LYS95      -0.2867
     83  CB        54.5650   26.6310  -13.1190 C.3    95  LYS95       0.0271
     84  CG        55.7090   27.1770  -13.9330 C.3    95  LYS95       0.0035
     85  CD        55.3610   27.5010  -15.3840 C.3    95  LYS95       0.0206
     86  CE        54.7900   26.3690  -16.1500 C.3    95  LYS95       0.1093
     87  NZ        54.4450   26.5380  -17.5760 N.3    95  LYS95      -0.1314
     88  N         49.3170   26.8480  -19.2090 N.3   103  ASN103     -0.1240
     89  CA        49.2330   25.8410  -20.2580 C.3   103  ASN103      0.1653
     90  C         48.2300   24.7810  -19.8000 C.2   103  ASN103      0.2266
     91  O         47.8450   24.8440  -18.6530 O.2   103  ASN103     -0.2867
     92  CB        50.5980   25.1810  -20.5900 C.3   103  ASN103      0.1155
     93  CG        51.3420   24.4830  -19.4540 C.2   103  ASN103      0.2627
     94  OD1       50.8650   24.4310  -18.3310 O.2   103  ASN103     -0.2716
     95  ND2       52.5220   23.9290  -19.7010 N.am  103  ASN103     -0.0877
     96  N         61.7150   14.4490  -12.0380 N.3   123  ALA123     -0.1231
     97  CA        62.8390   14.0300  -12.8280 C.3   123  ALA123      0.1694
     98  C         63.7350   15.2480  -13.1270 C.2   123  ALA123      0.2592
     99  O         63.3670   16.0180  -14.0180 O.2   123  ALA123     -0.2718
    100  CB        62.4760   13.4490  -14.1850 C.3   123  ALA123      0.0304
    101  N         64.9080   15.3300  -12.4940 N.am  124  MET124     -0.1965
    102  CA        65.8060   16.4230  -12.9080 C.3   124  MET124      0.1736
    103  C         67.2760   16.0800  -12.6470 C.2   124  MET124      0.2616
    104  O         67.5780   15.1770  -11.8690 O.2   124  MET124     -0.2715
    105  CB        65.3370   17.7110  -12.1840 C.3   124  MET124      0.0427
    106  CG        65.4530   17.6220  -10.7070 C.3   124  MET124      0.0599
    107  SD        64.7900   18.8450   -9.6000 S.3   124  MET124     -0.1393
    108  CE        63.0180   18.6110   -9.7500 C.3   124  MET124      0.0692
    109  N         68.1920   16.8180  -13.2620 N.am  125  ASN125     -0.1972
    110  CA        69.6300   16.5910  -13.0320 C.3   125  ASN125      0.1688
    111  C         69.9130   16.7130  -11.5570 C.2   125  ASN125      0.2292
    112  O         69.2540   17.5000  -10.8360 O.2   125  ASN125     -0.2864
    113  CB        70.4640   17.5910  -13.8390 C.3   125  ASN125      0.1181
    114  CG        71.9800   17.3710  -13.7140 C.2   125  ASN125      0.2629
    115  OD1       72.6350   17.8060  -12.7690 O.2   125  ASN125     -0.2716
    116  ND2       72.5100   16.6780  -14.6900 N.am  125  ASN125     -0.0877
    117  N         70.0640   20.2790  -10.0220 N.3   128  MET128     -0.1245
    118  CA        68.7710   20.9420   -9.7340 C.3   128  MET128      0.1570
    119  C         68.0510   20.2800   -8.5690 C.2   128  MET128      0.2261
    120  O         67.4920   20.9470   -7.7000 O.2   128  MET128     -0.2867
    121  CB        67.8090   20.8470  -10.9100 C.3   128  MET128      0.0387
    122  CG        67.8770   22.0710  -11.7600 C.3   128  MET128      0.0595
    123  SD        66.7620   22.0460  -13.1280 S.3   128  MET128     -0.1393
    124  CE        67.6390   23.0110  -14.3480 C.3   128  MET128      0.0692
@<TRIPOS>BOND
     1    42    43    1
     2    44    43    1
     3    44    45    2
     4    43    46    1
     5    39    38    2
     6    32    31    2
     7    48    50   ar
     8    48    47   ar
     9    46    47    1
    10    36    37    1
    11    37    38    1
    12    37    40    1
    13    50    52   ar
    14    47    49   ar
    15    31    30    1
    16    52    51   ar
    17    49    51   ar
    18    41    40    1
    19    30    29    1
    20    30    33    1
    21    22    21    1
    22    20    19    2
    23    34    33    1
    24    33    35    1
    25    92    89    1
    26    92    93    1
    27    23    21    1
    28    18    21    1
    29    18    19    1
    30    18    17    1
    31    89    90    1
    32    89    88    1
    33    14    13    2
    34    19    24   am
    35     8     9    1
    36     8     7    1
    37    90    91    2
    38    95    93   am
    39    17    13   am
    40    13    12    1
    41    93    94    2
    42    27    26    2
    43     4     3    2
    44     9    10    2
    45     9    11   am
    46    26    25    1
    47     7     3   am
    48    11    12    1
    49     3     2    1
    50    24    25    1
    51    25    28    1
    52    12    15    1
    53     2     1    1
    54     2     5    1
    55    87    86    1
    56    15    16    1
    57     5     6    1
    58    71    69   am
    59    86    85    1
    60    69    68    1
    61    69    70    2
    62    77    76    1
    63    57    58    1
    64    57    54    1
    65    68    65    1
    66    85    84    1
    67   116   114   am
    68    76    78    1
    69    76    73    1
    70   124   123    1
    71    54    53    1
    72    54    55    1
    73   100    97    1
    74    99    98    2
    75    72    66   am
    76    72    73    1
    77    65    66    1
    78    65    64    1
    79    84    83    1
    80   113   114    1
    81   113   110    1
    82   114   115    2
    83    66    67    2
    84    73    74    1
    85    64    61   am
    86   109   110    1
    87   109   103   am
    88   123   122    1
    89    98    97    1
    90    98   101   am
    91    83    80    1
    92    55    59   am
    93    55    56    2
    94   110   111    1
    95    59    60    1
    96   102   103    1
    97   102   101    1
    98   102   105    1
    99    97    96    1
   100   103   104    2
   101    61    60    1
   102    61    62    2
   103    74    75    2
   104   105   106    1
   105    63    60    1
   106   122   121    1
   107    80    79    1
   108    80    81    1
   109   111   112    2
   110   121   118    1
   111    81    82    2
   112   106   107    1
   113   117   118    1
   114   108   107    1
   115   118   119    1
   116   119   120    2
