@<TRIPOS>MOLECULE
tmp/1e22A01.pdb
 180 167 0 0 0
SMALL
GASTEIGER

@<TRIPOS>ATOM
      1  N         22.7040   70.7480   31.8570 N.3   200  ALA200     -0.1231
      2  CA        22.7950   70.8950   33.3000 C.3   200  ALA200      0.1694
      3  C         23.4500   72.2340   33.6120 C.2   200  ALA200      0.2592
      4  O         23.8660   72.9600   32.7080 O.2   200  ALA200     -0.2718
      5  CB        23.6180   69.7540   33.8860 C.3   200  ALA200      0.0304
      6  N         23.5250   72.5710   34.8940 N.am  201  SER201     -0.1952
      7  CA        24.1470   73.8210   35.2980 C.3   201  SER201      0.1924
      8  C         25.3250   73.4800   36.1890 C.2   201  SER201      0.2314
      9  O         25.1490   72.9200   37.2650 O.2   201  SER201     -0.2863
     10  CB        23.1470   74.7000   36.0500 C.3   201  SER201      0.2116
     11  OG        22.2090   75.2850   35.1530 O.3   201  SER201     -0.2180
     12  N         32.3950   67.8460   36.1470 N.3   245  ARG245     -0.1245
     13  CA        31.9740   69.1290   36.6710 C.3   245  ARG245      0.1563
     14  C         33.1180   69.7240   37.4670 C.2   245  ARG245      0.2260
     15  O         33.6600   69.1010   38.3770 O.2   245  ARG245     -0.2867
     16  CB        30.6920   68.9490   37.4770 C.3   245  ARG245      0.0307
     17  CG        29.6310   68.2710   36.6130 C.3   245  ARG245      0.0489
     18  CD        28.2170   68.4170   37.1130 C.3   245  ARG245      0.2205
     19  NE        27.3100   67.6410   36.2680 N.pl3 245  ARG245     -0.0865
     20  CZ        25.9840   67.6370   36.3870 C.cat 245  ARG245      0.5346
     21  NH1       25.3930   68.3720   37.3260 N.pl3 245  ARG245      0.1354
     22  NH2       25.2510   66.8960   35.5620 N.pl3 245  ARG245      0.1354
     23  N         33.8490   71.2940   39.9460 N.3   247  GLU247     -0.1245
     24  CA        33.4670   71.6680   41.2970 C.3   247  GLU247      0.1567
     25  C         34.3800   70.9550   42.2940 C.2   247  GLU247      0.2260
     26  O         35.1970   70.1130   41.9150 O.2   247  GLU247     -0.2867
     27  CB        31.9890   71.3260   41.5630 C.3   247  GLU247      0.0388
     28  CG        31.5300   69.9220   41.1640 C.3   247  GLU247      0.1160
     29  CD        30.0220   69.8450   40.8870 C.2   247  GLU247      0.3649
     30  OE1       29.4780   70.7500   40.2040 O.co2 247  GLU247     -0.2457
     31  OE2       29.3760   68.8740   41.3500 O.co2 247  GLU247     -0.2457
     32  N         30.0150   63.3340   48.6560 N.3   252  ARG252     -0.1231
     33  CA        29.0380   62.9420   47.6460 C.3   252  ARG252      0.1694
     34  C         29.3670   63.5720   46.2770 C.2   252  ARG252      0.2592
     35  O         28.5330   63.5520   45.3630 O.2   252  ARG252     -0.2718
     36  CB        27.6230   63.3410   48.0950 C.3   252  ARG252      0.0321
     37  CG        27.3050   64.8380   48.0400 C.3   252  ARG252      0.0489
     38  CD        25.8560   65.1130   48.4680 C.3   252  ARG252      0.2205
     39  NE        25.5270   66.5400   48.4860 N.pl3 252  ARG252     -0.0865
     40  CZ        25.7120   67.3360   49.5360 C.cat 252  ARG252      0.5346
     41  NH1       26.2280   66.8460   50.6620 N.pl3 252  ARG252      0.1354
     42  NH2       25.3830   68.6210   49.4600 N.pl3 252  ARG252      0.1354
     43  N         30.5830   64.1130   46.1430 N.am  253  HIS253     -0.1962
     44  CA        31.0370   64.7680   44.9090 C.3   253  HIS253      0.1787
     45  C         32.4200   64.3670   44.3980 C.2   253  HIS253      0.2620
     46  O         33.4070   64.4920   45.1170 O.2   253  HIS253     -0.2715
     47  CB        31.1030   66.2900   45.0820 C.3   253  HIS253      0.0785
     48  CG        29.7810   66.9460   45.3100 C.ar  253  HIS253      0.0821
     49  ND1       29.4720   67.6010   46.4820 N.ar  253  HIS253     -0.2267
     50  CD2       28.6950   67.0670   44.5100 C.ar  253  HIS253      0.1154
     51  CE1       28.2510   68.0990   46.3950 C.ar  253  HIS253      0.1986
     52  NE2       27.7560   67.7890   45.2110 N.ar  253  HIS253     -0.2212
     53  N         32.4900   63.8880   43.1600 N.am  254  ASN254     -0.1972
     54  CA        33.7820   63.5990   42.5330 C.3   254  ASN254      0.1688
     55  C         33.6960   64.5020   41.2960 C.2   254  ASN254      0.2292
     56  O         32.6190   64.6430   40.7070 O.2   254  ASN254     -0.2864
     57  CB        33.9330   62.1300   42.1400 C.3   254  ASN254      0.1181
     58  CG        35.3840   61.7590   41.8490 C.2   254  ASN254      0.2629
     59  OD1       35.6870   61.0970   40.8510 O.2   254  ASN254     -0.2716
     60  ND2       36.2860   62.1940   42.7160 N.am  254  ASN254     -0.0877
     61  N         32.0820   61.8610   37.4320 N.3   257  PHE257     -0.1241
     62  CA        31.2620   60.8060   37.9970 C.3   257  PHE257      0.1605
     63  C         30.4780   60.0880   36.9190 C.2   257  PHE257      0.2264
     64  O         30.3410   60.5840   35.8050 O.2   257  PHE257     -0.2867
     65  CB        30.3030   61.3930   39.0320 C.3   257  PHE257      0.0534
     66  CG        29.3680   62.4290   38.4780 C.ar  257  PHE257     -0.0203
     67  CD1       29.7810   63.7450   38.3230 C.ar  257  PHE257     -0.0042
     68  CD2       28.0680   62.0870   38.1140 C.ar  257  PHE257     -0.0042
     69  CE1       28.9130   64.7080   37.8110 C.ar  257  PHE257     -0.0003
     70  CE2       27.1860   63.0440   37.5990 C.ar  257  PHE257     -0.0003
     71  CZ        27.6090   64.3550   37.4470 C.ar  257  PHE257     -0.0000
     72  N         27.0790   58.6630   35.2850 N.3   259  MET259     -0.1245
     73  CA        25.6630   58.9390   35.2800 C.3   259  MET259      0.1570
     74  C         24.9480   58.1320   34.2160 C.2   259  MET259      0.2261
     75  O         25.5100   57.8420   33.1650 O.2   259  MET259     -0.2867
     76  CB        25.4220   60.4160   35.0160 C.3   259  MET259      0.0387
     77  CG        23.9680   60.7340   34.7950 C.3   259  MET259      0.0595
     78  SD        23.4690   62.1360   35.7660 S.3   259  MET259     -0.1393
     79  CE        23.4650   63.4140   34.4280 C.3   259  MET259      0.0692
     80  N         17.2510   73.0480   49.2620 N.3   359  ASP359     -0.1239
     81  CA        18.5270   72.3560   49.3600 C.3   359  ASP359      0.1674
     82  C         19.0810   72.4640   50.7670 C.2   359  ASP359      0.2266
     83  O         19.5150   71.4780   51.3540 O.2   359  ASP359     -0.2867
     84  CB        19.5320   72.9620   48.3750 C.3   359  ASP359      0.1410
     85  CG        19.4120   72.3810   46.9780 C.2   359  ASP359      0.3668
     86  OD1       18.6690   71.3930   46.8010 O.co2 359  ASP359     -0.2456
     87  OD2       20.0670   72.9190   46.0580 O.co2 359  ASP359     -0.2456
     88  N         16.7330   68.7770   51.9470 N.3   363  GLU363     -0.1245
     89  CA        17.5590   67.7740   51.2910 C.3   363  GLU363      0.1567
     90  C         18.1620   66.7230   52.2240 C.2   363  GLU363      0.2260
     91  O         17.9310   65.5210   52.0470 O.2   363  GLU363     -0.2867
     92  CB        18.6650   68.4740   50.4940 C.3   363  GLU363      0.0388
     93  CG        19.4090   67.5800   49.5080 C.3   363  GLU363      0.1160
     94  CD        20.3060   68.3660   48.5480 C.2   363  GLU363      0.3649
     95  OE1       20.8210   69.4370   48.9420 O.co2 363  GLU363     -0.2457
     96  OE2       20.4980   67.9130   47.3960 O.co2 363  GLU363     -0.2457
     97  N          8.9660   68.2460   36.6590 N.3   395  ARG395     -0.1245
     98  CA        10.2540   67.7100   37.0460 C.3   395  ARG395      0.1563
     99  C         10.2740   67.2410   38.4950 C.2   395  ARG395      0.2260
    100  O          9.5270   67.7380   39.3320 O.2   395  ARG395     -0.2867
    101  CB        11.3220   68.7790   36.8450 C.3   395  ARG395      0.0307
    102  CG        12.6650   68.3970   37.4070 C.3   395  ARG395      0.0489
    103  CD        13.6670   69.4830   37.1610 C.3   395  ARG395      0.2205
    104  NE        14.9540   69.1350   37.7530 N.pl3 395  ARG395     -0.0865
    105  CZ        15.8500   70.0400   38.1260 C.cat 395  ARG395      0.5346
    106  NH1       15.5820   71.3340   37.9580 N.pl3 395  ARG395      0.1354
    107  NH2       17.0000   69.6590   38.6730 N.pl3 395  ARG395      0.1354
    108  N         13.1480   65.1640   41.5210 N.3   397  GLU397     -0.1245
    109  CA        14.4780   64.6840   41.8400 C.3   397  GLU397      0.1567
    110  C         14.1560   63.7060   42.9470 C.2   397  GLU397      0.2260
    111  O         13.1550   63.8710   43.6350 O.2   397  GLU397     -0.2867
    112  CB        15.3620   65.8170   42.3440 C.3   397  GLU397      0.0388
    113  CG        15.8040   66.7510   41.2370 C.3   397  GLU397      0.1160
    114  CD        17.0770   67.5030   41.5760 C.2   397  GLU397      0.3649
    115  OE1       17.1660   68.0500   42.6960 O.co2 397  GLU397     -0.2457
    116  OE2       17.9950   67.5490   40.7250 O.co2 397  GLU397     -0.2457
    117  N         20.8700   63.5500   46.9160 N.3   404  GLU404     -0.1231
    118  CA        20.1720   63.5610   45.6340 C.3   404  GLU404      0.1699
    119  C         20.7190   62.3790   44.8340 C.2   404  GLU404      0.2592
    120  O         21.9290   62.2700   44.6520 O.2   404  GLU404     -0.2718
    121  CB        20.4830   64.8570   44.8970 C.3   404  GLU404      0.0402
    122  CG        19.6030   65.1320   43.7090 C.3   404  GLU404      0.1161
    123  CD        20.0260   66.3920   42.9920 C.2   404  GLU404      0.3649
    124  OE1       20.4000   67.3600   43.6870 O.co2 404  GLU404     -0.2457
    125  OE2       19.9880   66.4160   41.7420 O.co2 404  GLU404     -0.2457
    126  N         19.8410   61.4910   44.3770 N.am  405  ILE405     -0.1966
    127  CA        20.2700   60.3250   43.6030 C.3   405  ILE405      0.1727
    128  C         19.9390   60.5070   42.1220 C.2   405  ILE405      0.2617
    129  O         20.7510   60.2140   41.2560 O.2   405  ILE405     -0.2715
    130  CB        19.5770   59.0230   44.0880 C.3   405  ILE405      0.0290
    131  CG1       19.7090   58.8800   45.6090 C.3   405  ILE405      0.0022
    132  CG2       20.2020   57.8140   43.4050 C.3   405  ILE405      0.0023
    133  CD1       21.1380   59.0040   46.1370 C.3   405  ILE405      0.0001
    134  N         18.7390   60.9950   41.8370 N.am  406  GLY406     -0.1940
    135  CA        18.3330   61.1840   40.4610 C.3   406  GLY406      0.2014
    136  C         17.5950   62.4730   40.1770 C.2   406  GLY406      0.2638
    137  O         17.1600   63.1940   41.0740 O.2   406  GLY406     -0.2714
    138  N         17.4450   62.7490   38.8920 N.am  407  ASN407     -0.1972
    139  CA        16.7810   63.9480   38.4160 C.3   407  ASN407      0.1688
    140  C         16.0760   63.5420   37.1310 C.2   407  ASN407      0.2292
    141  O         16.7200   63.0900   36.1870 O.2   407  ASN407     -0.2864
    142  CB        17.8420   65.0040   38.1360 C.3   407  ASN407      0.1181
    143  CG        17.2710   66.2800   37.5610 C.2   407  ASN407      0.2629
    144  OD1       16.0550   66.5270   37.5890 O.2   407  ASN407     -0.2716
    145  ND2       18.1550   67.1090   37.0370 N.am  407  ASN407     -0.0877
    146  N         17.9160   61.0210   34.9860 N.3   458  GLY458     -0.1225
    147  CA        19.3490   61.0320   35.2040 C.3   458  GLY458      0.1811
    148  C         19.6140   60.5270   36.6080 C.2   458  GLY458      0.2280
    149  O         19.1400   61.1090   37.5720 O.2   458  GLY458     -0.2866
    150  N         22.6240   59.3640   39.3660 N.3   460  GLY460     -0.1225
    151  CA        24.0450   59.3620   39.6910 C.3   460  GLY460      0.1811
    152  C         24.3690   57.9310   40.0830 C.2   460  GLY460      0.2280
    153  O         23.8860   57.4330   41.0980 O.2   460  GLY460     -0.2866
    154  N         27.3410   56.5220   40.9680 N.3   462  ASP462     -0.1225
    155  CA        28.2060   56.3860   42.1250 C.3   462  ASP462      0.1805
    156  C         27.3840   56.5000   43.4100 C.2   462  ASP462      0.2597
    157  O         27.5340   55.6950   44.3270 O.2   462  ASP462     -0.2718
    158  CB        29.3030   57.4450   42.0790 C.3   462  ASP462      0.1424
    159  CG        29.9440   57.5540   40.7060 C.2   462  ASP462      0.3668
    160  OD1       30.7700   56.6770   40.3510 O.co2 462  ASP462     -0.2456
    161  OD2       29.6140   58.5210   39.9850 O.co2 462  ASP462     -0.2456
    162  N         26.5000   57.4860   43.4660 N.am  463  ARG463     -0.1979
    163  CA        25.6600   57.6730   44.6350 C.3   463  ARG463      0.1597
    164  C         24.7150   56.5070   44.8600 C.2   463  ARG463      0.2287
    165  O         24.4620   56.1110   46.0030 O.2   463  ARG463     -0.2864
    166  CB        24.8710   58.9590   44.4990 C.3   463  ARG463      0.0334
    167  CG        25.7680   60.1630   44.5580 C.3   463  ARG463      0.0492
    168  CD        24.9610   61.4030   44.7880 C.3   463  ARG463      0.2205
    169  NE        25.8090   62.5830   44.7790 N.pl3 463  ARG463     -0.0865
    170  CZ        25.3420   63.8240   44.8300 C.cat 463  ARG463      0.5346
    171  NH1       24.0290   64.0370   44.8950 N.pl3 463  ARG463      0.1354
    172  NH2       26.1870   64.8500   44.8060 N.pl3 463  ARG463      0.1354
    173  N         31.3570   58.7970   48.7250 N.3   474  ILE474     -0.1245
    174  CA        31.4070   58.4310   47.3110 C.3   474  ILE474      0.1561
    175  C         32.7790   57.8330   46.9760 C.2   474  ILE474      0.2260
    176  O         32.9030   56.9960   46.0830 O.2   474  ILE474     -0.2867
    177  CB        31.1440   59.6680   46.4150 C.3   474  ILE474      0.0252
    178  CG1       30.7720   59.2200   44.9950 C.3   474  ILE474      0.0019
    179  CG2       32.3500   60.5860   46.4380 C.3   474  ILE474      0.0019
    180  CD1       30.0830   60.2970   44.1430 C.3   474  ILE474      0.0001
@<TRIPOS>BOND
     1     1     2    1
     2     4     3    2
     3    75    74    2
     4     2     3    1
     5     2     5    1
     6     3     6   am
     7    74    73    1
     8    79    78    1
     9    77    76    1
    10    77    78    1
    11     6     7    1
    12   146   147    1
    13    76    73    1
    14    11    10    1
    15   147   148    1
    16    73    72    1
    17     7    10    1
    18     7     8    1
    19    22    20    1
    20    64    63    2
    21    12    13    1
    22   141   140    2
    23     8     9    2
    24    19    20    2
    25    19    18    1
    26    20    21    1
    27   148   149    2
    28    17    18    1
    29    17    16    1
    30    97    98    1
    31    13    14    1
    32    13    16    1
    33   101    98    1
    34   101   102    1
    35    63    62    1
    36   145   143   am
    37    98    99    1
    38   140   139    1
    39   103   102    1
    40   103   104    1
    41    61    62    1
    42    71    70   ar
    43    71    69   ar
    44    14    15    2
    45   143   144    2
    46   143   142    1
    47    70    68   ar
    48   104   105    2
    49    69    67   ar
    50   106   105    1
    51    62    65    1
    52    68    66   ar
    53   105   107    1
    54   142   139    1
    55    67    66   ar
    56   139   138    1
    57    66    65    1
    58    99   100    2
    59   138   136   am
    60   150   151    1
    61   151   152    1
    62    23    24    1
    63   161   159   ar
    64   152   153    2
    65   136   135    1
    66   136   137    2
    67    30    29   ar
    68   160   159   ar
    69   135   134    1
    70   159   158    1
    71    56    55    2
    72   116   114   ar
    73    59    58    2
    74    29    28    1
    75    29    31   ar
    76   154   155    1
    77    28    27    1
    78   113   114    1
    79   113   112    1
    80   129   128    2
    81    55    54    1
    82    24    27    1
    83    24    25    1
    84   108   109    1
    85   114   115   ar
    86   125   123   ar
    87   134   128   am
    88   109   112    1
    89   109   110    1
    90    58    57    1
    91    58    60   am
    92    26    25    2
    93   158   155    1
    94   128   127    1
    95   155   156    1
    96    57    54    1
    97    54    53    1
    98   110   111    2
    99   123   124   ar
   100   123   122    1
   101    53    45   am
   102   132   130    1
   103   156   162   am
   104   156   157    2
   105   162   163    1
   106   127   130    1
   107   127   126    1
   108   122   121    1
   109   130   131    1
   110   180   178    1
   111   126   119   am
   112    45    44    1
   113    45    46    2
   114   166   167    1
   115   166   163    1
   116    50    52   ar
   117    50    48   ar
   118   167   168    1
   119   163   164    1
   120   120   119    2
   121   169   168    1
   122   169   170    2
   123   172   170    1
   124   170   171    1
   125   119   118    1
   126   164   165    2
   127   121   118    1
   128    44    47    1
   129    44    43    1
   130   178   177    1
   131    47    48    1
   132    52    51   ar
   133    48    49   ar
   134    35    34    2
   135   131   133    1
   136   118   117    1
   137    87    85   ar
   138   176   175    2
   139    43    34   am
   140    34    33    1
   141    51    49   ar
   142   177   179    1
   143   177   174    1
   144    86    85   ar
   145   175   174    1
   146    85    84    1
   147   174   173    1
   148    96    94   ar
   149    33    36    1
   150    33    32    1
   151    37    36    1
   152    37    38    1
   153    84    81    1
   154    38    39    1
   155    39    40    2
   156    94    95   ar
   157    94    93    1
   158    80    81    1
   159    81    82    1
   160    42    40    1
   161    93    92    1
   162    40    41    1
   163    92    89    1
   164    82    83    2
   165    89    88    1
   166    89    90    1
   167    91    90    2
