@<TRIPOS>MOLECULE
tmp/1e24A01.pdb
 188 176 0 0 0
SMALL
GASTEIGER

@<TRIPOS>ATOM
      1  N         23.1240   71.3180   32.1800 N.3   200  ALA200     -0.1231
      2  CA        23.1210   71.5210   33.6250 C.3   200  ALA200      0.1694
      3  C         23.6910   72.8870   33.9370 C.2   200  ALA200      0.2592
      4  O         24.0260   73.6520   33.0320 O.2   200  ALA200     -0.2718
      5  CB        23.9460   70.4400   34.3240 C.3   200  ALA200      0.0304
      6  N         23.7860   73.2000   35.2220 N.am  201  SER201     -0.1952
      7  CA        24.3290   74.4800   35.6480 C.3   201  SER201      0.1924
      8  C         25.5380   74.1750   36.5060 C.2   201  SER201      0.2314
      9  O         25.4000   73.7380   37.6450 O.2   201  SER201     -0.2863
     10  CB        23.2930   75.2600   36.4570 C.3   201  SER201      0.2116
     11  OG        22.0390   75.2480   35.8010 O.3   201  SER201     -0.2180
     12  N         32.8110   68.5240   36.4010 N.3   245  ARG245     -0.1245
     13  CA        32.4090   69.8200   36.9170 C.3   245  ARG245      0.1563
     14  C         33.5510   70.4320   37.7040 C.2   245  ARG245      0.2260
     15  O         34.1310   69.8040   38.5910 O.2   245  ARG245     -0.2867
     16  CB        31.1350   69.6760   37.7470 C.3   245  ARG245      0.0307
     17  CG        29.9030   69.5720   36.8520 C.3   245  ARG245      0.0489
     18  CD        28.7320   68.9110   37.5240 C.3   245  ARG245      0.2205
     19  NE        27.7990   68.3510   36.5460 N.pl3 245  ARG245     -0.0865
     20  CZ        26.4750   68.3830   36.6770 C.cat 245  ARG245      0.5346
     21  NH1       25.9300   68.9490   37.7440 N.pl3 245  ARG245      0.1354
     22  NH2       25.6940   67.8450   35.7530 N.pl3 245  ARG245      0.1354
     23  N         34.4500   71.9860   40.2790 N.3   247  GLU247     -0.1245
     24  CA        34.0920   72.3560   41.6350 C.3   247  GLU247      0.1567
     25  C         34.9260   71.5450   42.6160 C.2   247  GLU247      0.2260
     26  O         35.5510   70.5530   42.2420 O.2   247  GLU247     -0.2867
     27  CB        32.6020   72.1180   41.8760 C.3   247  GLU247      0.0388
     28  CG        32.1710   70.6620   41.8220 C.3   247  GLU247      0.1160
     29  CD        30.7220   70.5110   41.3880 C.2   247  GLU247      0.3649
     30  OE1       30.2430   71.3680   40.6150 O.co2 247  GLU247     -0.2457
     31  OE2       30.0620   69.5440   41.8130 O.co2 247  GLU247     -0.2457
     32  N         30.5420   63.9060   48.8930 N.3   252  ARG252     -0.1231
     33  CA        29.5950   63.4400   47.8920 C.3   252  ARG252      0.1694
     34  C         29.8570   64.0540   46.5130 C.2   252  ARG252      0.2592
     35  O         29.0400   63.9120   45.6050 O.2   252  ARG252     -0.2718
     36  CB        28.1630   63.7240   48.3500 C.3   252  ARG252      0.0321
     37  CG        27.8290   65.1920   48.5030 C.3   252  ARG252      0.0489
     38  CD        26.3310   65.3860   48.5750 C.3   252  ARG252      0.2205
     39  NE        25.9830   66.7880   48.7590 N.pl3 252  ARG252     -0.0865
     40  CZ        25.9560   67.3910   49.9390 C.cat 252  ARG252      0.5346
     41  NH1       26.2570   66.7080   51.0380 N.pl3 252  ARG252      0.1354
     42  NH2       25.6430   68.6790   50.0150 N.pl3 252  ARG252      0.1354
     43  N         31.0030   64.7210   46.3630 N.am  253  HIS253     -0.1962
     44  CA        31.4010   65.3420   45.0940 C.3   253  HIS253      0.1787
     45  C         32.8150   64.9800   44.6370 C.2   253  HIS253      0.2620
     46  O         33.7730   65.0850   45.4040 O.2   253  HIS253     -0.2715
     47  CB        31.3730   66.8660   45.1850 C.3   253  HIS253      0.0785
     48  CG        30.0220   67.4430   45.4400 C.ar  253  HIS253      0.0821
     49  ND1       29.6660   67.9860   46.6560 N.ar  253  HIS253     -0.2267
     50  CD2       28.9490   67.5970   44.6280 C.ar  253  HIS253      0.1154
     51  CE1       28.4310   68.4500   46.5830 C.ar  253  HIS253      0.1986
     52  NE2       27.9750   68.2260   45.3630 N.ar  253  HIS253     -0.2212
     53  N         32.9360   64.5680   43.3780 N.am  254  ASN254     -0.1972
     54  CA        34.2360   64.2740   42.7730 C.3   254  ASN254      0.1688
     55  C         34.1870   65.1060   41.4860 C.2   254  ASN254      0.2292
     56  O         33.1330   65.2030   40.8600 O.2   254  ASN254     -0.2864
     57  CB        34.3870   62.7810   42.4540 C.3   254  ASN254      0.1181
     58  CG        35.8340   62.3920   42.1580 C.2   254  ASN254      0.2629
     59  OD1       36.7120   62.5070   43.0150 O.2   254  ASN254     -0.2716
     60  ND2       36.0850   61.9360   40.9400 N.am  254  ASN254     -0.0877
     61  N         32.4730   62.3810   37.7260 N.3   257  PHE257     -0.1241
     62  CA        31.6120   61.3820   38.3200 C.3   257  PHE257      0.1605
     63  C         30.8140   60.6880   37.2440 C.2   257  PHE257      0.2264
     64  O         30.7070   61.1810   36.1260 O.2   257  PHE257     -0.2867
     65  CB        30.6730   62.0350   39.3380 C.3   257  PHE257      0.0534
     66  CG        29.7840   63.1050   38.7560 C.ar  257  PHE257     -0.0203
     67  CD1       30.2590   64.4020   38.5730 C.ar  257  PHE257     -0.0042
     68  CD2       28.4520   62.8230   38.4270 C.ar  257  PHE257     -0.0042
     69  CE1       29.4210   65.4080   38.0760 C.ar  257  PHE257     -0.0003
     70  CE2       27.6100   63.8150   37.9290 C.ar  257  PHE257     -0.0003
     71  CZ        28.0940   65.1140   37.7540 C.ar  257  PHE257     -0.0000
     72  N         27.3530   59.2790   35.6440 N.3   259  MET259     -0.1245
     73  CA        25.9300   59.5060   35.6720 C.3   259  MET259      0.1570
     74  C         25.2020   58.7790   34.5800 C.2   259  MET259      0.2261
     75  O         25.7560   58.5330   33.5170 O.2   259  MET259     -0.2867
     76  CB        25.6130   60.9870   35.5500 C.3   259  MET259      0.0387
     77  CG        24.3070   61.3240   36.2330 C.3   259  MET259      0.0595
     78  SD        23.7850   62.9590   35.8900 S.3   259  MET259     -0.1393
     79  CE        23.6420   62.8530   34.1820 C.3   259  MET259      0.0692
     80  N         17.2690   73.7950   49.6820 N.3   359  ASP359     -0.1239
     81  CA        18.5610   73.1240   49.8310 C.3   359  ASP359      0.1674
     82  C         19.0910   73.2510   51.2510 C.2   359  ASP359      0.2266
     83  O         19.5290   72.2770   51.8610 O.2   359  ASP359     -0.2867
     84  CB        19.5940   73.7370   48.8840 C.3   359  ASP359      0.1410
     85  CG        19.5080   73.1800   47.4840 C.2   359  ASP359      0.3668
     86  OD1       18.8790   72.1140   47.2970 O.co2 359  ASP359     -0.2456
     87  OD2       20.0730   73.8200   46.5730 O.co2 359  ASP359     -0.2456
     88  N         17.0350   69.4460   52.3240 N.3   363  GLU363     -0.1245
     89  CA        17.8790   68.4120   51.7300 C.3   363  GLU363      0.1567
     90  C         18.4850   67.3770   52.6770 C.2   363  GLU363      0.2260
     91  O         18.3370   66.1690   52.4680 O.2   363  GLU363     -0.2867
     92  CB        18.9990   69.0570   50.9100 C.3   363  GLU363      0.0388
     93  CG        19.7390   68.0660   50.0080 C.3   363  GLU363      0.1160
     94  CD        20.7610   68.7440   49.1130 C.2   363  GLU363      0.3649
     95  OE1       21.6740   69.4010   49.6560 O.co2 363  GLU363     -0.2457
     96  OE2       20.6530   68.6280   47.8720 O.co2 363  GLU363     -0.2457
     97  N          9.0500   68.8510   37.0880 N.3   395  ARG395     -0.1245
     98  CA        10.3330   68.2740   37.4300 C.3   395  ARG395      0.1563
     99  C         10.4060   67.8450   38.8950 C.2   395  ARG395      0.2260
    100  O          9.6920   68.3630   39.7530 O.2   395  ARG395     -0.2867
    101  CB        11.4180   69.3130   37.1270 C.3   395  ARG395      0.0307
    102  CG        12.6480   69.2380   37.9850 C.3   395  ARG395      0.0489
    103  CD        13.6770   70.2590   37.5450 C.3   395  ARG395      0.2205
    104  NE        14.9900   69.9310   38.0900 N.pl3 395  ARG395     -0.0865
    105  CZ        15.8700   70.8340   38.5000 C.cat 395  ARG395      0.5346
    106  NH1       15.5820   72.1270   38.4230 N.pl3 395  ARG395      0.1354
    107  NH2       17.0280   70.4370   39.0100 N.pl3 395  ARG395      0.1354
    108  N         13.3270   65.7580   41.9330 N.3   397  GLU397     -0.1245
    109  CA        14.6570   65.2820   42.2660 C.3   397  GLU397      0.1567
    110  C         14.3740   64.2990   43.3820 C.2   397  GLU397      0.2260
    111  O         13.3550   64.4130   44.0570 O.2   397  GLU397     -0.2867
    112  CB        15.5360   66.4140   42.7710 C.3   397  GLU397      0.0388
    113  CG        15.8290   67.4280   41.7060 C.3   397  GLU397      0.1160
    114  CD        17.0510   68.2560   42.0140 C.2   397  GLU397      0.3649
    115  OE1       17.1040   68.8990   43.0840 O.co2 397  GLU397     -0.2457
    116  OE2       17.9670   68.2670   41.1750 O.co2 397  GLU397     -0.2457
    117  N         21.2540   64.1380   47.3420 N.3   404  GLU404     -0.1231
    118  CA        20.5320   64.1170   46.0810 C.3   404  GLU404      0.1699
    119  C         21.0690   62.9690   45.2300 C.2   404  GLU404      0.2592
    120  O         22.2680   62.8920   44.9720 O.2   404  GLU404     -0.2718
    121  CB        20.7370   65.4360   45.3520 C.3   404  GLU404      0.0402
    122  CG        19.9700   65.5240   44.0710 C.3   404  GLU404      0.1161
    123  CD        20.2680   66.7930   43.3460 C.2   404  GLU404      0.3649
    124  OE1       20.5510   67.7890   44.0420 O.co2 404  GLU404     -0.2457
    125  OE2       20.2280   66.8000   42.0940 O.co2 404  GLU404     -0.2457
    126  N         20.1830   62.0780   44.7980 N.am  405  ILE405     -0.1966
    127  CA        20.5860   60.9330   43.9940 C.3   405  ILE405      0.1727
    128  C         20.1920   61.0800   42.5240 C.2   405  ILE405      0.2617
    129  O         20.8920   60.5940   41.6400 O.2   405  ILE405     -0.2715
    130  CB        19.9670   59.6130   44.5490 C.3   405  ILE405      0.0290
    131  CG1       20.1120   59.5630   46.0740 C.3   405  ILE405      0.0022
    132  CG2       20.6370   58.4030   43.9070 C.3   405  ILE405      0.0023
    133  CD1       21.5440   59.4470   46.5710 C.3   405  ILE405      0.0001
    134  N         19.0770   61.7530   42.2590 N.am  406  GLY406     -0.1940
    135  CA        18.6350   61.9050   40.8830 C.3   406  GLY406      0.2014
    136  C         17.8620   63.1720   40.5780 C.2   406  GLY406      0.2638
    137  O         17.4070   63.8760   41.4750 O.2   406  GLY406     -0.2714
    138  N         17.7000   63.4400   39.2890 N.am  407  ASN407     -0.1972
    139  CA        17.0180   64.6380   38.8060 C.3   407  ASN407      0.1688
    140  C         16.2890   64.2780   37.5170 C.2   407  ASN407      0.2292
    141  O         16.8960   63.7470   36.5890 O.2   407  ASN407     -0.2864
    142  CB        18.0670   65.7300   38.5460 C.3   407  ASN407      0.1181
    143  CG        17.4820   66.9910   37.9480 C.2   407  ASN407      0.2629
    144  OD1       16.2820   67.2570   38.0550 O.2   407  ASN407     -0.2716
    145  ND2       18.3390   67.7870   37.3140 N.am  407  ASN407     -0.0877
    146  N         18.1710   61.8070   35.2390 N.3   458  GLY458     -0.1210
    147  CA        19.6070   61.7040   35.4560 C.3   458  GLY458      0.1956
    148  C         19.8430   61.1660   36.8610 C.2   458  GLY458      0.2612
    149  O         19.2570   61.6640   37.8170 O.2   458  GLY458     -0.2717
    150  N         20.6810   60.1420   36.9870 N.am  459  ILE459     -0.1965
    151  CA        20.9790   59.5410   38.2810 C.3   459  ILE459      0.1727
    152  C         22.4820   59.4790   38.5340 C.2   459  ILE459      0.2616
    153  O         23.2310   58.9910   37.6900 O.2   459  ILE459     -0.2715
    154  CB        20.4360   58.0950   38.3670 C.3   459  ILE459      0.0290
    155  CG1       18.9100   58.1030   38.3010 C.3   459  ILE459      0.0022
    156  CG2       20.9080   57.4250   39.6660 C.3   459  ILE459      0.0023
    157  CD1       18.3080   56.7150   38.2780 C.3   459  ILE459      0.0001
    158  N         22.9150   59.9680   39.6980 N.am  460  GLY460     -0.1955
    159  CA        24.3260   59.9310   40.0550 C.3   460  GLY460      0.1869
    160  C         24.6650   58.5060   40.4490 C.2   460  GLY460      0.2309
    161  O         24.2650   58.0310   41.5080 O.2   460  GLY460     -0.2863
    162  N         27.5970   57.0890   41.3050 N.3   462  ASP462     -0.1225
    163  CA        28.4460   56.9470   42.4830 C.3   462  ASP462      0.1805
    164  C         27.6060   57.0930   43.7610 C.2   462  ASP462      0.2597
    165  O         27.7390   56.2920   44.6890 O.2   462  ASP462     -0.2718
    166  CB        29.5560   57.9980   42.4740 C.3   462  ASP462      0.1424
    167  CG        30.2300   58.1140   41.1260 C.2   462  ASP462      0.3668
    168  OD1       31.0560   57.2350   40.7920 O.co2 462  ASP462     -0.2456
    169  OD2       29.9300   59.0830   40.4020 O.co2 462  ASP462     -0.2456
    170  N         26.7460   58.1110   43.8040 N.am  463  ARG463     -0.1979
    171  CA        25.8850   58.3480   44.9660 C.3   463  ARG463      0.1597
    172  C         24.9830   57.1420   45.2060 C.2   463  ARG463      0.2287
    173  O         24.7010   56.7730   46.3490 O.2   463  ARG463     -0.2864
    174  CB        25.0280   59.5970   44.7520 C.3   463  ARG463      0.0334
    175  CG        25.8400   60.8530   44.4910 C.3   463  ARG463      0.0492
    176  CD        25.6760   61.8510   45.6140 C.3   463  ARG463      0.2205
    177  NE        26.4110   63.0920   45.3710 N.pl3 463  ARG463     -0.0865
    178  CZ        25.8380   64.2730   45.1460 C.cat 463  ARG463      0.5346
    179  NH1       24.5180   64.3750   45.1320 N.pl3 463  ARG463      0.1354
    180  NH2       26.5810   65.3540   44.9420 N.pl3 463  ARG463      0.1354
    181  N         31.8310   59.4030   49.0210 N.3   474  ILE474     -0.1245
    182  CA        31.8880   59.0240   47.6280 C.3   474  ILE474      0.1561
    183  C         33.2630   58.4340   47.2980 C.2   474  ILE474      0.2260
    184  O         33.3840   57.6110   46.3910 O.2   474  ILE474     -0.2867
    185  CB        31.5680   60.2360   46.7210 C.3   474  ILE474      0.0252
    186  CG1       31.2120   59.7450   45.3150 C.3   474  ILE474      0.0019
    187  CG2       32.7300   61.2140   46.7110 C.3   474  ILE474      0.0019
    188  CD1       30.7010   60.8400   44.4030 C.3   474  ILE474      0.0001
@<TRIPOS>BOND
     1     1     2    1
     2     4     3    2
     3    75    74    2
     4     2     3    1
     5     2     5    1
     6     3     6   am
     7    79    78    1
     8    74    73    1
     9     6     7    1
    10   146   147    1
    11   147   148    1
    12    76    73    1
    13    76    77    1
    14    72    73    1
    15     7    10    1
    16     7     8    1
    17    22    20    1
    18    11    10    1
    19    78    77    1
    20    64    63    2
    21    12    13    1
    22     8     9    2
    23    19    20    2
    24    19    18    1
    25   141   140    2
    26    20    21    1
    27    17    18    1
    28    17    16    1
    29   148   150   am
    30   148   149    2
    31    13    14    1
    32    13    16    1
    33   150   151    1
    34    97    98    1
    35   101    98    1
    36   101   102    1
    37    63    62    1
    38   145   143   am
    39    98    99    1
    40   140   139    1
    41   103   102    1
    42   103   104    1
    43   153   152    2
    44    14    15    2
    45    61    62    1
    46    71    70   ar
    47    71    69   ar
    48    70    68   ar
    49   143   144    2
    50   143   142    1
    51    69    67   ar
    52   104   105    2
    53   157   155    1
    54   151   154    1
    55   151   152    1
    56   155   154    1
    57    62    65    1
    58   154   156    1
    59   106   105    1
    60    68    66   ar
    61   105   107    1
    62   152   158   am
    63   142   139    1
    64    67    66   ar
    65    66    65    1
    66   139   138    1
    67    99   100    2
    68   138   136   am
    69   158   159    1
    70   159   160    1
    71    23    24    1
    72   169   167   ar
    73   160   161    2
    74   136   135    1
    75   136   137    2
    76    30    29   ar
    77   168   167   ar
    78    56    55    2
    79   135   134    1
    80    60    58   am
    81   167   166    1
    82   116   114   ar
    83   162   163    1
    84    29    31   ar
    85    29    28    1
    86    55    54    1
    87    24    27    1
    88    24    25    1
    89   129   128    2
    90   113   114    1
    91   113   112    1
    92    28    27    1
    93   108   109    1
    94   114   115   ar
    95   125   123   ar
    96    58    57    1
    97    58    59    2
    98    26    25    2
    99   134   128   am
   100   109   112    1
   101   109   110    1
   102    57    54    1
   103   166   163    1
   104   163   164    1
   105   128   127    1
   106    54    53    1
   107   123   124   ar
   108   123   122    1
   109    53    45   am
   110   110   111    2
   111   164   170   am
   112   164   165    2
   113   170   171    1
   114   132   130    1
   115   127   130    1
   116   127   126    1
   117   122   121    1
   118   188   186    1
   119   175   174    1
   120   175   176    1
   121   130   131    1
   122    50    52   ar
   123    50    48   ar
   124    45    44    1
   125    45    46    2
   126   174   171    1
   127   126   119   am
   128   180   178    1
   129   171   172    1
   130   120   119    2
   131    44    47    1
   132    44    43    1
   133   179   178    1
   134   178   177    2
   135    47    48    1
   136   172   173    2
   137   119   118    1
   138   186   185    1
   139   121   118    1
   140    52    51   ar
   141   177   176    1
   142    48    49   ar
   143    35    34    2
   144   131   133    1
   145   118   117    1
   146    43    34   am
   147   184   183    2
   148    34    33    1
   149    87    85   ar
   150    51    49   ar
   151   187   185    1
   152   185   182    1
   153    86    85   ar
   154   183   182    1
   155    85    84    1
   156   182   181    1
   157    96    94   ar
   158    33    36    1
   159    33    32    1
   160    36    37    1
   161    37    38    1
   162    38    39    1
   163    39    40    2
   164    84    81    1
   165    94    95   ar
   166    94    93    1
   167    80    81    1
   168    81    82    1
   169    40    42    1
   170    40    41    1
   171    93    92    1
   172    92    89    1
   173    82    83    2
   174    89    88    1
   175    89    90    1
   176    91    90    2
