@<TRIPOS>MOLECULE
tmp/1e26A01.pdb
 200 194 0 0 0
SMALL
GASTEIGER

@<TRIPOS>ATOM
      1  N          5.7170    4.0030   16.8400 N.3     9  ILE9       -0.1231
      2  CA         6.2700    3.2410   15.7170 C.3     9  ILE9        0.1692
      3  C          7.7110    2.8680   16.0510 C.2     9  ILE9        0.2592
      4  O          8.5040    3.7270   16.4320 O.2     9  ILE9       -0.2718
      5  CB         6.1890    4.0260   14.3760 C.3     9  ILE9        0.0266
      6  CG1        6.7510    3.1550   13.2460 C.3     9  ILE9        0.0019
      7  CG2        6.9460    5.3440   14.4750 C.3     9  ILE9        0.0020
      8  CD1        6.3090    3.5760   11.8590 C.3     9  ILE9        0.0001
      9  N          8.0340    1.5800   15.9170 N.am   10  VAL10      -0.1966
     10  CA         9.3530    1.0730   16.2740 C.3    10  VAL10       0.1727
     11  C          9.8080   -0.1490   15.4550 C.2    10  VAL10       0.2616
     12  O          8.9940   -0.9170   14.9480 O.2    10  VAL10      -0.2715
     13  CB         9.3550    0.6790   17.7830 C.3    10  VAL10       0.0290
     14  CG1        8.3650   -0.4500   18.0190 C.3    10  VAL10       0.0023
     15  CG2       10.7300    0.2630   18.2370 C.3    10  VAL10       0.0023
     16  N         11.1220   -0.3050   15.3310 N.am   11  ALA11      -0.1977
     17  CA        11.7240   -1.4340   14.6380 C.3    11  ALA11       0.1597
     18  C         12.5200   -2.1000   15.7460 C.2    11  ALA11       0.2287
     19  O         13.3700   -1.4500   16.3710 O.2    11  ALA11      -0.2864
     20  CB        12.6710   -0.9580   13.5280 C.3    11  ALA11       0.0319
     21  N         21.4750    2.5940   14.4030 N.3    24  LEU24      -0.1245
     22  CA        20.6080    1.4740   14.0620 C.3    24  LEU24       0.1561
     23  C         21.5140    0.4560   13.3780 C.2    24  LEU24       0.2260
     24  O         21.8500    0.6030   12.2040 O.2    24  LEU24      -0.2867
     25  CB        19.5100    1.9250   13.1010 C.3    24  LEU24       0.0270
     26  CG        18.5310    2.9550   13.6610 C.3    24  LEU24       0.0019
     27  CD1       17.7790    3.6000   12.5140 C.3    24  LEU24       0.0001
     28  CD2       17.5780    2.2880   14.6390 C.3    24  LEU24       0.0001
     29  N         21.4550   -1.8360   11.6240 N.3    26  TRP26      -0.1241
     30  CA        20.8330   -2.4950   10.4830 C.3    26  TRP26       0.1605
     31  C         20.4030   -1.4620    9.4400 C.2    26  TRP26       0.2264
     32  O         19.7670   -0.4520    9.7650 O.2    26  TRP26      -0.2867
     33  CB        19.6390   -3.3560   10.9390 C.3    26  TRP26       0.0550
     34  CG        18.5940   -2.6440   11.7640 C.ar   26  TRP26       0.0003
     35  CD1       17.7340   -1.6730   11.3380 C.ar   26  TRP26       0.0946
     36  CD2       18.2790   -2.8780   13.1470 C.ar   26  TRP26       0.0152
     37  NE1       16.9030   -1.2920   12.3630 N.ar   26  TRP26      -0.2442
     38  CE2       17.2140   -2.0140   13.4850 C.ar   26  TRP26       0.0810
     39  CE3       18.7930   -3.7340   14.1300 C.ar   26  TRP26       0.0012
     40  CZ2       16.6500   -1.9820   14.7660 C.ar   26  TRP26       0.0191
     41  CZ3       18.2320   -3.7010   15.4010 C.ar   26  TRP26       0.0001
     42  CH2       17.1700   -2.8300   15.7060 C.ar   26  TRP26       0.0015
     43  N         16.5940   -0.3660    3.6660 N.3    29  LYS29      -0.1245
     44  CA        16.0060    0.6940    2.8570 C.3    29  LYS29       0.1561
     45  C         14.4960    0.6170    2.7590 C.2    29  LYS29       0.2260
     46  O         13.8210    1.6420    2.7860 O.2    29  LYS29      -0.2867
     47  CB        16.6020    0.6830    1.4510 C.3    29  LYS29       0.0271
     48  CG        16.1380    1.8480    0.5920 C.3    29  LYS29       0.0035
     49  CD        16.8430    1.8690   -0.7570 C.3    29  LYS29       0.0206
     50  CE        16.3720    0.7470   -1.6720 C.3    29  LYS29       0.1093
     51  NZ        14.9520    0.9320   -2.0740 N.3    29  LYS29      -0.1314
     52  N         12.5270   -0.8440    4.9720 N.3    31  GLU31      -0.1231
     53  CA        11.9510   -0.6470    6.2960 C.3    31  GLU31       0.1699
     54  C         11.7840    0.8580    6.5260 C.2    31  GLU31       0.2592
     55  O         10.7690    1.3060    7.0590 O.2    31  GLU31      -0.2718
     56  CB        12.8530   -1.2590    7.3770 C.3    31  GLU31       0.0402
     57  CG        12.1280   -1.6110    8.6860 C.3    31  GLU31       0.1161
     58  CD        11.4640   -0.4080    9.3650 C.2    31  GLU31       0.3649
     59  OE1       12.1240    0.6420    9.5110 O.co2  31  GLU31      -0.2457
     60  OE2       10.2840   -0.5140    9.7620 O.co2  31  GLU31      -0.2457
     61  N         12.7760    1.6390    6.1090 N.am   32  ILE32      -0.1966
     62  CA        12.7050    3.0870    6.2610 C.3    32  ILE32       0.1727
     63  C         11.6310    3.6670    5.3450 C.2    32  ILE32       0.2617
     64  O         10.9850    4.6630    5.6740 O.2    32  ILE32      -0.2715
     65  CB        14.0540    3.7500    5.9430 C.3    32  ILE32       0.0290
     66  CG1       14.9600    3.6930    7.1760 C.3    32  ILE32       0.0022
     67  CG2       13.8370    5.1870    5.5240 C.3    32  ILE32       0.0023
     68  CD1       14.4320    4.4930    8.3370 C.3    32  ILE32       0.0001
     69  N         11.4350    3.0380    4.1950 N.am   33  SER33      -0.1936
     70  CA        10.4220    3.4970    3.2560 C.3    33  SER33       0.2055
     71  C          9.0460    3.3160    3.8850 C.2    33  SER33       0.2643
     72  O          8.1640    4.1560    3.7410 O.2    33  SER33      -0.2714
     73  CB        10.5220    2.7030    1.9540 C.3    33  SER33       0.2130
     74  OG         9.3240    2.8130    1.2100 O.3    33  SER33      -0.2179
     75  N          8.8730    2.2040    4.5850 N.am   34  TYR34      -0.1959
     76  CA         7.6190    1.9180    5.2600 C.3    34  TYR34       0.1771
     77  C          7.3950    2.9790    6.3550 C.2    34  TYR34       0.2620
     78  O          6.2990    3.5270    6.4950 O.2    34  TYR34      -0.2715
     79  CB         7.6890    0.5170    5.8610 C.3    34  TYR34       0.0574
     80  CG         6.5070    0.1450    6.7100 C.ar   34  TYR34      -0.0198
     81  CD1        5.2530   -0.0620    6.1420 C.ar   34  TYR34      -0.0009
     82  CD2        6.6380    0.0160    8.1000 C.ar   34  TYR34      -0.0009
     83  CE1        4.1510   -0.3910    6.9370 C.ar   34  TYR34       0.0417
     84  CE2        5.5470   -0.3090    8.9000 C.ar   34  TYR34       0.0417
     85  CZ         4.3090   -0.5100    8.3120 C.ar   34  TYR34       0.1957
     86  OH         3.2270   -0.8170    9.1010 O.3    34  TYR34      -0.2866
     87  N          8.4350    3.2660    7.1290 N.am   35  PHE35      -0.1960
     88  CA         8.3530    4.2670    8.1940 C.3    35  PHE35       0.1771
     89  C          7.8780    5.6120    7.6340 C.2    35  PHE35       0.2619
     90  O          6.9960    6.2590    8.1990 O.2    35  PHE35      -0.2715
     91  CB         9.7260    4.4440    8.8330 C.3    35  PHE35       0.0574
     92  CG         9.8270    5.6300    9.7390 C.ar   35  PHE35      -0.0200
     93  CD1       10.1890    6.8780    9.2330 C.ar   35  PHE35      -0.0042
     94  CD2        9.5590    5.5100   11.0970 C.ar   35  PHE35      -0.0042
     95  CE1       10.2830    7.9910   10.0640 C.ar   35  PHE35      -0.0003
     96  CE2        9.6530    6.6220   11.9480 C.ar   35  PHE35      -0.0003
     97  CZ        10.0140    7.8630   11.4260 C.ar   35  PHE35      -0.0000
     98  N          8.4820    6.0230    6.5200 N.am   36  LYS36      -0.1977
     99  CA         8.1530    7.2880    5.8620 C.3    36  LYS36       0.1596
    100  C          6.7020    7.3230    5.3780 C.2    36  LYS36       0.2287
    101  O          5.9800    8.2850    5.6090 O.2    36  LYS36      -0.2864
    102  CB         9.1080    7.4980    4.6850 C.3    36  LYS36       0.0298
    103  CG         8.9760    8.8140    3.9570 C.3    36  LYS36       0.0038
    104  CD        10.1570    8.9730    3.0210 C.3    36  LYS36       0.0206
    105  CE        10.2530   10.3730    2.4260 C.3    36  LYS36       0.1093
    106  NZ        11.4930   10.5160    1.5780 N.3    36  LYS36      -0.1314
    107  N         17.4580   10.7550   19.5430 N.3    60  THR60      -0.1218
    108  CA        16.9180   10.1600   18.3290 C.3    60  THR60       0.1862
    109  C         16.9420   11.2320   17.2480 C.2    60  THR60       0.2287
    110  O         17.0720   10.9320   16.0610 O.2    60  THR60      -0.2866
    111  CB        15.4860    9.6580   18.5510 C.3    60  THR60       0.1770
    112  OG1       15.5290    8.5130   19.4110 O.3    60  THR60      -0.2211
    113  CG2       14.8290    9.2910   17.2360 C.3    60  THR60       0.0375
    114  N         20.3230   11.2670   15.8620 N.3    63  SER63      -0.1202
    115  CA        20.5490   10.0580   15.0680 C.3    63  SER63       0.2020
    116  C         20.0600   10.1460   13.6280 C.2    63  SER63       0.2619
    117  O         20.3890    9.2840   12.8110 O.2    63  SER63      -0.2717
    118  CB        19.9060    8.8380   15.7410 C.3    63  SER63       0.2103
    119  OG        18.5170    8.7540   15.4590 O.3    63  SER63      -0.2182
    120  N         19.2720   11.1700   13.3130 N.am   64  ILE64      -0.1966
    121  CA        18.7640   11.3320   11.9510 C.3    64  ILE64       0.1712
    122  C         19.7730   12.0760   11.0720 C.2    64  ILE64       0.2458
    123  O         20.2550   13.1570   11.4320 O.2    64  ILE64      -0.2730
    124  CB        17.4310   12.1160   11.9240 C.3    64  ILE64       0.0289
    125  CG1       16.4000   11.4250   12.8220 C.3    64  ILE64       0.0022
    126  CG2       16.9210   12.2230   10.4890 C.3    64  ILE64       0.0023
    127  CD1       15.0730   12.1420   12.8980 C.3    64  ILE64       0.0001
    128  N         20.1140   11.4960    9.9090 N.am   65  PRO65      -0.2727
    129  CA        21.0700   12.1370    9.0010 C.3    65  PRO65       0.1402
    130  C         20.6560   13.5820    8.7610 C.2    65  PRO65       0.2269
    131  O         19.4940   13.8480    8.4440 O.2    65  PRO65      -0.2865
    132  CB        20.9600   11.2860    7.7410 C.3    65  PRO65       0.0296
    133  CG        20.6850    9.9130    8.3040 C.3    65  PRO65       0.0237
    134  CD        19.6510   10.2050    9.3660 C.3    65  PRO65       0.0939
    135  N         18.3400   14.4190    6.3060 N.3    68  PHE68      -0.1241
    136  CA        16.9150   14.1570    6.4580 C.3    68  PHE68       0.1605
    137  C         16.1940   14.8970    7.5800 C.2    68  PHE68       0.2264
    138  O         14.9820   14.7340    7.7540 O.2    68  PHE68      -0.2867
    139  CB        16.6830   12.6490    6.5760 C.3    68  PHE68       0.0534
    140  CG        17.0920   11.8890    5.3420 C.ar   68  PHE68      -0.0203
    141  CD1       16.3380   11.9850    4.1700 C.ar   68  PHE68      -0.0042
    142  CD2       18.2520   11.1170    5.3300 C.ar   68  PHE68      -0.0042
    143  CE1       16.7330   11.3240    3.0030 C.ar   68  PHE68      -0.0003
    144  CE2       18.6560   10.4500    4.1660 C.ar   68  PHE68      -0.0003
    145  CZ        17.8940   10.5560    3.0020 C.ar   68  PHE68      -0.0000
    146  N         12.0070   15.7520    9.2380 N.3    71  LEU71      -0.1231
    147  CA        11.2740   14.8070    8.4130 C.3    71  LEU71       0.1693
    148  C         10.2520   15.6010    7.6180 C.2    71  LEU71       0.2591
    149  O          9.2810   16.1110    8.1760 O.2    71  LEU71      -0.2718
    150  CB        10.5810   13.7660    9.2920 C.3    71  LEU71       0.0284
    151  CG        11.5260   12.9730   10.2050 C.3    71  LEU71       0.0019
    152  CD1       10.7160   12.0450   11.1190 C.3    71  LEU71       0.0001
    153  CD2       12.5170   12.1790    9.3620 C.3    71  LEU71       0.0001
    154  N         10.4880   15.7060    6.3130 N.am   72  LYS72      -0.1980
    155  CA         9.6190   16.4500    5.4010 C.3    72  LYS72       0.1596
    156  C          8.1500   16.0490    5.4430 C.2    72  LYS72       0.2287
    157  O          7.8190   14.8670    5.5490 O.2    72  LYS72      -0.2864
    158  CB        10.1120   16.3000    3.9540 C.3    72  LYS72       0.0298
    159  CG        11.5050   16.8580    3.6620 C.3    72  LYS72       0.0038
    160  CD        11.8560   16.6600    2.1810 C.3    72  LYS72       0.0206
    161  CE        13.2490   17.1840    1.8160 C.3    72  LYS72       0.1093
    162  NZ        14.3670   16.3610    2.3690 N.3    72  LYS72      -0.1314
    163  N          5.9570   16.5370    7.7320 N.3    74  ARG74      -0.1245
    164  CA         5.4840   16.1220    9.0460 C.3    74  ARG74       0.1563
    165  C          5.9330   17.1210   10.0960 C.2    74  ARG74       0.2260
    166  O          7.0320   17.6680   10.0190 O.2    74  ARG74      -0.2867
    167  CB         6.0390   14.7390    9.4020 C.3    74  ARG74       0.0307
    168  CG         5.3050   13.5630    8.7910 C.3    74  ARG74       0.0489
    169  CD         6.2490   12.3770    8.6700 C.3    74  ARG74       0.2205
    170  NE         7.2520   12.6450    7.6470 N.pl3  74  ARG74      -0.0865
    171  CZ         8.2350   11.8260    7.2960 C.cat  74  ARG74       0.5346
    172  NH1        8.3840   10.6500    7.8860 N.pl3  74  ARG74       0.1354
    173  NH2        9.0590   12.1820    6.3240 N.pl3  74  ARG74       0.1354
    174  N          7.9630    8.3970   17.6640 N.3   122  ILE122     -0.1245
    175  CA         8.8920    7.6070   16.8910 C.3   122  ILE122      0.1561
    176  C         10.1150    7.1770   17.6350 C.2   122  ILE122      0.2260
    177  O         11.0140    6.6000   17.0620 O.2   122  ILE122     -0.2867
    178  CB         9.3160    8.3320   15.6190 C.3   122  ILE122      0.0252
    179  CG1       10.2350    9.5060   15.9560 C.3   122  ILE122      0.0019
    180  CG2        8.0880    8.8310   14.9090 C.3   122  ILE122      0.0019
    181  CD1       10.8750   10.1350   14.7380 C.3   122  ILE122      0.0001
    182  N          9.8980    6.2220   24.6980 N.3   128  TYR128     -0.1241
    183  CA         9.0650    5.0360   24.5400 C.3   128  TYR128      0.1605
    184  C          8.4960    4.6460   25.9010 C.2   128  TYR128      0.2264
    185  O          7.3530    4.2270   26.0030 O.2   128  TYR128     -0.2867
    186  CB         9.8700    3.8530   23.9960 C.3   128  TYR128      0.0534
    187  CG        10.0790    3.8560   22.4980 C.ar  128  TYR128     -0.0201
    188  CD1        9.0950    4.3440   21.6320 C.ar  128  TYR128     -0.0009
    189  CD2       11.2380    3.3140   21.9430 C.ar  128  TYR128     -0.0009
    190  CE1        9.2600    4.2880   20.2540 C.ar  128  TYR128      0.0417
    191  CE2       11.4070    3.2520   20.5740 C.ar  128  TYR128      0.0417
    192  CZ        10.4160    3.7380   19.7360 C.ar  128  TYR128      0.1957
    193  OH        10.5830    3.6520   18.3750 O.3   128  TYR128     -0.2866
    194  N          7.9080   -3.3430   13.7090 N.3   143  THR143     -0.1218
    195  CA         8.6110   -4.0900   12.6670 C.3   143  THR143      0.1862
    196  C          9.5120   -5.0540   13.4400 C.2   143  THR143      0.2287
    197  O         10.4440   -4.6430   14.1320 O.2   143  THR143     -0.2866
    198  CB         9.4880   -3.1930   11.7920 C.3   143  THR143      0.1770
    199  OG1        8.6540   -2.3100   11.0370 O.3   143  THR143     -0.2211
    200  CG2       10.3190   -4.0320   10.8470 C.3   143  THR143      0.0375
@<TRIPOS>BOND
     1    51    50    1
     2    50    49    1
     3    49    48    1
     4    48    47    1
     5    74    73    1
     6    47    44    1
     7   106   105    1
     8   161   160    1
     9   161   162    1
    10    73    70    1
    11   160   159    1
    12   105   104    1
    13    45    46    2
    14    45    44    1
    15    44    43    1
    16   145   143   ar
    17   145   144   ar
    18   143   141   ar
    19   104   103    1
    20    70    71    1
    21    70    69    1
    22   159   158    1
    23    72    71    2
    24    71    75   am
    25   158   155    1
    26   103   102    1
    27   144   142   ar
    28   141   140   ar
    29    69    63   am
    30    75    76    1
    31   102    99    1
    32    52    53    1
    33    76    79    1
    34    76    77    1
    35   142   140   ar
    36   140   139    1
    37    63    64    2
    38    63    62    1
    39   100   101    2
    40   100    99    1
    41   155   156    1
    42   155   154    1
    43   156   157    2
    44    67    65    1
    45    79    80    1
    46    99    98    1
    47    65    62    1
    48    65    66    1
    49    61    62    1
    50    61    54   am
    51    81    80   ar
    52    81    83   ar
    53    53    54    1
    54    53    56    1
    55   135   136    1
    56   154   148   am
    57   173   171    1
    58    77    78    2
    59    77    87   am
    60   136   139    1
    61   136   137    1
    62    98    89   am
    63    54    55    2
    64    80    82   ar
    65    83    85   ar
    66    87    88    1
    67    66    68    1
    68   171   170    2
    69   171   172    1
    70    56    57    1
    71   137   138    2
    72   148   149    2
    73   148   147    1
    74    89    88    1
    75    89    90    2
    76   170   169    1
    77   163   164    1
    78   132   133    1
    79   132   129    1
    80    82    84   ar
    81    88    91    1
    82   133   134    1
    83    85    84   ar
    84    85    86    1
    85   147   146    1
    86   147   150    1
    87   131   130    2
    88   169   168    1
    89    57    58    1
    90   130   129    1
    91   168   167    1
    92    91    92    1
    93   129   128    1
    94   164   167    1
    95   164   165    1
    96    93    92   ar
    97    93    95   ar
    98   150   151    1
    99   153   151    1
   100    58    59   ar
   101    58    60   ar
   102   134   128    1
   103    31    32    2
   104    31    30    1
   105    92    94   ar
   106   128   122   am
   107   166   165    2
   108    95    97   ar
   109   151   152    1
   110    30    33    1
   111    30    29    1
   112   126   124    1
   113   200   198    1
   114    33    34    1
   115   199   198    1
   116   122   123    2
   117   122   121    1
   118    94    96   ar
   119    35    34   ar
   120    35    37   ar
   121    97    96   ar
   122    34    36   ar
   123   198   195    1
   124     8     6    1
   125   124   121    1
   126   124   125    1
   127   121   120    1
   128    24    23    2
   129    37    38   ar
   130    27    26    1
   131   195   196    1
   132   195   194    1
   133   117   116    2
   134   125   127    1
   135    25    26    1
   136    25    22    1
   137    36    38   ar
   138    36    39   ar
   139     6     5    1
   140   120   116   am
   141    23    22    1
   142   196   197    2
   143    38    40   ar
   144    20    17    1
   145   116   115    1
   146    26    28    1
   147    22    21    1
   148    39    41   ar
   149     5     7    1
   150     5     2    1
   151    17    16    1
   152    17    18    1
   153   181   179    1
   154    40    42   ar
   155   180   178    1
   156    12    11    2
   157   115   118    1
   158   115   114    1
   159    16    11   am
   160    41    42   ar
   161    11    10    1
   162   119   118    1
   163   178   179    1
   164   178   175    1
   165     2     3    1
   166     2     1    1
   167    18    19    2
   168     9     3   am
   169     9    10    1
   170     3     4    2
   171   110   109    2
   172    10    13    1
   173   175   176    1
   174   175   174    1
   175   177   176    2
   176   113   111    1
   177   109   108    1
   178    13    14    1
   179    13    15    1
   180   108   111    1
   181   108   107    1
   182   193   192    1
   183   111   112    1
   184   192   190   ar
   185   192   191   ar
   186   190   188   ar
   187   191   189   ar
   188   188   187   ar
   189   189   187   ar
   190   187   186    1
   191   186   183    1
   192   183   182    1
   193   183   184    1
   194   184   185    2
