@<TRIPOS>MOLECULE
tmp/1e2iA00.pdb
 154 146 0 0 0
SMALL
GASTEIGER

@<TRIPOS>ATOM
      1  N         49.4090   38.9540   -3.1390 N.3    13  HIS13      -0.1241
      2  CA        50.7330   38.5560   -2.6000 C.3    13  HIS13       0.1621
      3  C         51.7930   38.5190   -3.7170 C.2    13  HIS13       0.2264
      4  O         51.4830   38.4870   -4.9100 O.2    13  HIS13      -0.2867
      5  CB        50.6490   37.1790   -1.9690 C.3    13  HIS13       0.0745
      6  CG        50.3630   36.0700   -2.9310 C.ar   13  HIS13       0.0817
      7  ND1       49.2010   35.8930   -3.6200 N.ar   13  HIS13      -0.2268
      8  CD2       51.1780   35.0250   -3.2910 C.ar   13  HIS13       0.1154
      9  CE1       49.2650   34.8090   -4.3690 C.ar   13  HIS13       0.1986
     10  NE2       50.4690   34.2640   -4.1740 N.ar   13  HIS13      -0.2212
     11  N         52.2490   37.3690    8.9130 N.3    26  GLU26      -0.1245
     12  CA        51.4340   36.3780    8.2180 C.3    26  GLU26       0.1567
     13  C         51.4190   35.0950    9.0290 C.2    26  GLU26       0.2260
     14  O         52.4670   34.5880    9.4090 O.2    26  GLU26      -0.2867
     15  CB        52.1180   36.1580    6.8570 C.3    26  GLU26       0.0388
     16  CG        51.7490   34.9140    6.1160 C.3    26  GLU26       0.1160
     17  CD        52.3680   34.8770    4.7150 C.2    26  GLU26       0.3649
     18  OE1       51.7360   35.4830    3.8300 O.co2  26  GLU26      -0.2457
     19  OE2       53.4260   34.2840    4.5010 O.co2  26  GLU26      -0.2457
     20  N         48.5970   28.1720    8.9600 N.3    31  TRP31      -0.1241
     21  CA        48.2870   27.5580    7.6710 C.3    31  TRP31       0.1605
     22  C         48.9520   26.2340    7.3960 C.2    31  TRP31       0.2264
     23  O         48.3320   25.3360    6.8020 O.2    31  TRP31      -0.2867
     24  CB        48.6050   28.5400    6.5340 C.3    31  TRP31       0.0550
     25  CG        47.9030   29.8530    6.6200 C.ar   31  TRP31       0.0003
     26  CD1       46.6960   30.1050    7.2080 C.ar   31  TRP31       0.0946
     27  CD2       48.3110   31.0830    6.0020 C.ar   31  TRP31       0.0152
     28  NE1       46.3580   31.4330    7.0510 N.ar   31  TRP31      -0.2442
     29  CE2       47.3340   32.0480    6.3170 C.ar   31  TRP31       0.0810
     30  CE3       49.4090   31.4650    5.2200 C.ar   31  TRP31       0.0012
     31  CZ2       47.4350   33.3550    5.8640 C.ar   31  TRP31       0.0191
     32  CZ3       49.5110   32.7810    4.7990 C.ar   31  TRP31       0.0001
     33  CH2       48.5070   33.7340    5.1160 C.ar   31  TRP31       0.0015
     34  N         48.3130   25.8580    2.1140 N.3    40  ILE40      -0.1245
     35  CA        48.5660   26.4470    0.7720 C.3    40  ILE40       0.1561
     36  C         48.7500   25.3730   -0.2600 C.2    40  ILE40       0.2260
     37  O         48.2390   25.4500   -1.3790 O.2    40  ILE40      -0.2867
     38  CB        49.6880   27.4680    0.8550 C.3    40  ILE40       0.0252
     39  CG1       49.1340   28.7950    1.4130 C.3    40  ILE40       0.0019
     40  CG2       50.4820   27.6900   -0.4220 C.3    40  ILE40       0.0019
     41  CD1       50.2340   29.7430    1.8620 C.3    40  ILE40       0.0001
     42  N         45.4900   24.0530   -1.4070 N.3    43  ILE43      -0.1231
     43  CA        44.8250   24.9940   -2.3260 C.3    43  ILE43       0.1692
     44  C         45.4000   24.8730   -3.7290 C.2    43  ILE43       0.2592
     45  O         44.6690   24.6510   -4.7290 O.2    43  ILE43      -0.2718
     46  CB        45.0100   26.4390   -1.8210 C.3    43  ILE43       0.0266
     47  CG1       44.1120   26.6230   -0.5690 C.3    43  ILE43       0.0019
     48  CG2       44.6650   27.4850   -2.8630 C.3    43  ILE43       0.0020
     49  CD1       44.2480   28.0030    0.0680 C.3    43  ILE43       0.0001
     50  N         46.7130   25.0660   -3.8480 N.am   44  TYR44      -0.1976
     51  CA        47.3490   25.0040   -5.1680 C.3    44  TYR44       0.1639
     52  C         47.2500   23.6590   -5.8460 C.2    44  TYR44       0.2290
     53  O         47.0560   23.6210   -7.0900 O.2    44  TYR44      -0.2864
     54  CB        48.7430   25.6150   -5.1230 C.3    44  TYR44       0.0560
     55  CG        48.6620   27.1260   -4.9380 C.ar   44  TYR44      -0.0198
     56  CD1       48.5510   27.7190   -3.6880 C.ar   44  TYR44      -0.0009
     57  CD2       48.6810   27.9490   -6.0550 C.ar   44  TYR44      -0.0009
     58  CE1       48.4650   29.1050   -3.5660 C.ar   44  TYR44       0.0417
     59  CE2       48.6220   29.3190   -5.9270 C.ar   44  TYR44       0.0417
     60  CZ        48.4910   29.8970   -4.6800 C.ar   44  TYR44       0.1957
     61  OH        48.4180   31.2790   -4.6180 O.3    44  TYR44      -0.2866
     62  N         39.6660   27.9900    2.4890 N.3    68  GLN68      -0.1245
     63  CA        39.6300   29.4350    2.7180 C.3    68  GLN68       0.1566
     64  C         39.2010   29.7250    4.1600 C.2    68  GLN68       0.2260
     65  O         39.6640   30.7300    4.6960 O.2    68  GLN68      -0.2867
     66  CB        38.6770   30.1540    1.7790 C.3    68  GLN68       0.0367
     67  CG        38.9110   29.9650    0.3010 C.3    68  GLN68       0.0905
     68  CD        40.3500   30.2200   -0.0970 C.2    68  GLN68       0.2608
     69  OE1       40.9370   29.4230   -0.8320 O.2    68  GLN68      -0.2717
     70  NE2       40.9050   31.3160    0.4040 N.am   68  GLN68      -0.0878
     71  N         42.4860   29.4450    6.1130 N.3    71  MET71      -0.1245
     72  CA        43.3600   30.5780    5.8370 C.3    71  MET71       0.1570
     73  C         42.9340   31.8220    6.6110 C.2    71  MET71       0.2261
     74  O         43.7550   32.6210    7.0890 O.2    71  MET71      -0.2867
     75  CB        43.3370   30.9140    4.3360 C.3    71  MET71       0.0387
     76  CG        43.8870   29.8310    3.4150 C.3    71  MET71       0.0595
     77  SD        45.6110   29.4830    3.7020 S.3    71  MET71      -0.1393
     78  CE        46.3930   30.9900    3.1860 C.3    71  MET71       0.0692
     79  N         42.8380   36.0250   11.0460 N.3    75  TYR75      -0.1241
     80  CA        42.4600   37.4140   10.8980 C.3    75  TYR75       0.1605
     81  C         41.1510   37.7310   11.6150 C.2    75  TYR75       0.2264
     82  O         40.9480   38.7790   12.1960 O.2    75  TYR75      -0.2867
     83  CB        42.2810   37.8150    9.4240 C.3    75  TYR75       0.0534
     84  CG        43.4330   37.3520    8.5530 C.ar   75  TYR75      -0.0201
     85  CD1       44.7360   37.7730    8.7750 C.ar   75  TYR75      -0.0009
     86  CD2       43.1550   36.5180    7.4690 C.ar   75  TYR75      -0.0009
     87  CE1       45.7730   37.3390    7.9410 C.ar   75  TYR75       0.0417
     88  CE2       44.1890   36.1020    6.6350 C.ar   75  TYR75       0.0417
     89  CZ        45.4840   36.5120    6.8890 C.ar   75  TYR75       0.1957
     90  OH        46.4900   36.0800    6.0290 O.3    75  TYR75      -0.2866
     91  N         47.9560   41.7900    6.2230 N.3   102  ARG102     -0.1245
     92  CA        46.6610   41.5700    5.6900 C.3   102  ARG102      0.1563
     93  C         45.5090   41.9430    6.6260 C.2   102  ARG102      0.2260
     94  O         45.5940   42.0100    7.8540 O.2   102  ARG102     -0.2867
     95  CB        46.4260   40.1390    5.1770 C.3   102  ARG102      0.0307
     96  CG        47.4460   39.8010    4.0710 C.3   102  ARG102      0.0489
     97  CD        47.0840   38.4950    3.3460 C.3   102  ARG102      0.2205
     98  NE        48.1110   38.4030    2.2820 N.pl3 102  ARG102     -0.0865
     99  CZ        47.8980   38.7960    1.0350 C.cat 102  ARG102      0.5346
    100  NH1       46.6530   39.2010    0.7350 N.pl3 102  ARG102      0.1354
    101  NH2       48.8710   38.7220    0.1450 N.pl3 102  ARG102      0.1354
    102  N         40.9780   40.0970    2.8700 N.3   106  ALA106     -0.1231
    103  CA        41.8050   39.2950    1.9730 C.3   106  ALA106      0.1694
    104  C         41.2030   37.8790    1.9160 C.2   106  ALA106      0.2591
    105  O         41.0590   37.2970    0.8450 O.2   106  ALA106     -0.2718
    106  CB        43.2140   39.2310    2.5070 C.3   106  ALA106      0.0304
    107  N         40.8860   37.3510    3.1030 N.am  107  ALA107     -0.1980
    108  CA        40.3500   36.0090    3.2000 C.3   107  ALA107      0.1597
    109  C         38.8490   35.8900    3.1330 C.2   107  ALA107      0.2287
    110  O         38.3540   34.7690    2.9000 O.2   107  ALA107     -0.2864
    111  CB        40.8660   35.3410    4.5100 C.3   107  ALA107      0.0319
    112  N         40.5220   36.7050   -1.9880 N.3   111  TYR111     -0.1241
    113  CA        40.9780   35.3810   -2.4100 C.3   111  TYR111      0.1605
    114  C         39.8210   34.5510   -2.8780 C.2   111  TYR111      0.2264
    115  O         39.8640   33.9800   -3.9660 O.2   111  TYR111     -0.2867
    116  CB        41.9520   34.7510   -1.4330 C.3   111  TYR111      0.0534
    117  CG        43.3350   35.3900   -1.6850 C.ar  111  TYR111     -0.0201
    118  CD1       43.7230   36.5870   -1.1120 C.ar  111  TYR111     -0.0009
    119  CD2       44.2190   34.7390   -2.5360 C.ar  111  TYR111     -0.0009
    120  CE1       44.9480   37.1370   -1.3680 C.ar  111  TYR111      0.0417
    121  CE2       45.4520   35.2890   -2.8100 C.ar  111  TYR111      0.0417
    122  CZ        45.8290   36.4640   -2.2260 C.ar  111  TYR111      0.1957
    123  OH        47.0670   37.0030   -2.4760 O.3   111  TYR111     -0.2866
    124  N         39.2610   32.9930   -6.5640 N.3   115  ARG115     -0.1245
    125  CA        39.0410   31.5590   -6.8980 C.3   115  ARG115      0.1563
    126  C         37.7610   31.3600   -7.6870 C.2   115  ARG115      0.2260
    127  O         37.6690   30.4900   -8.5690 O.2   115  ARG115     -0.2867
    128  CB        39.1170   30.7020   -5.6450 C.3   115  ARG115      0.0307
    129  CG        40.5120   30.6260   -5.0270 C.3   115  ARG115      0.0489
    130  CD        41.4750   29.8340   -5.9610 C.3   115  ARG115      0.2205
    131  NE        42.8390   29.9280   -5.3440 N.pl3 115  ARG115     -0.0865
    132  CZ        43.9380   29.4990   -5.9790 C.cat 115  ARG115      0.5346
    133  NH1       43.8580   28.9390   -7.1870 N.pl3 115  ARG115      0.1354
    134  NH2       45.1450   29.6230   -5.4330 N.pl3 115  ARG115      0.1354
    135  N         55.5860   30.5230   -1.6780 N.3   161  ARG161     -0.1241
    136  CA        55.3200   30.0620   -0.3080 C.3   161  ARG161      0.1606
    137  C         55.2830   28.5340   -0.3210 C.2   161  ARG161      0.2264
    138  O         55.1330   27.9120   -1.3700 O.2   161  ARG161     -0.2867
    139  CB        53.9310   30.5650    0.1070 C.3   161  ARG161      0.0562
    140  CG        53.7170   32.0540    0.1970 C.2   161  ARG161      0.0159
    141  CD        53.7550   32.6220    1.5780 C.2   161  ARG161      0.1886
    142  NE        53.7360   34.0150    1.7890 N.pl3 161  ARG161     -0.0578
    143  CZ        53.7990   35.1420    1.1440 C.cat 161  ARG161      0.5393
    144  NH1       53.8150   35.2320   -0.1840 N.pl3 161  ARG161      0.1358
    145  NH2       53.8620   36.2950    1.8250 N.pl3 161  ARG161      0.1358
    146  N         52.9860   26.4490   -2.6970 N.3   164  GLU164     -0.1245
    147  CA        52.4400   27.2490   -3.7910 C.3   164  GLU164      0.1567
    148  C         52.9130   26.7480   -5.1590 C.2   164  GLU164      0.2260
    149  O         54.0120   26.2060   -5.2620 O.2   164  GLU164     -0.2867
    150  CB        52.9080   28.6990   -3.5940 C.3   164  GLU164      0.0388
    151  CG        52.2330   29.6950   -4.5330 C.3   164  GLU164      0.1160
    152  CD        52.6400   31.1190   -4.2520 C.2   164  GLU164      0.3649
    153  OE1       53.4510   31.3640   -3.3300 O.co2 164  GLU164     -0.2457
    154  OE2       52.1460   32.0240   -4.9620 O.co2 164  GLU164     -0.2457
@<TRIPOS>BOND
     1   127   126    2
     2   126   125    1
     3   133   132    1
     4    53    52    2
     5   125   124    1
     6   125   128    1
     7    57    59   ar
     8    57    55   ar
     9   132   134    1
    10   132   131    2
    11   130   131    1
    12   130   129    1
    13    59    60   ar
    14    52    51    1
    15   128   129    1
    16   149   148    2
    17    51    54    1
    18    51    50    1
    19   148   147    1
    20    54    55    1
    21   154   152   ar
    22    55    56   ar
    23     4     3    2
    24    45    44    2
    25    60    61    1
    26    60    58   ar
    27   151   152    1
    28   151   150    1
    29     9    10   ar
    30     9     7   ar
    31   152   153   ar
    32    10     8   ar
    33   115   114    2
    34    50    44   am
    35   147   150    1
    36   147   146    1
    37    44    43    1
    38     3     2    1
    39    56    58   ar
    40     7     6   ar
    41     8     6   ar
    42     1     2    1
    43     6     5    1
    44   114   113    1
    45    48    46    1
    46   121   119   ar
    47   121   122   ar
    48     2     5    1
    49   119   117   ar
    50   123   122    1
    51   113   112    1
    52   113   116    1
    53    43    46    1
    54    43    42    1
    55   122   120   ar
    56    46    47    1
    57   117   116    1
    58   117   118   ar
    59   135   136    1
    60    37    36    2
    61   138   137    2
    62   120   118   ar
    63    69    68    2
    64    47    49    1
    65    40    38    1
    66   137   136    1
    67   136   139    1
    68    36    35    1
    69   144   143    1
    70    68    67    1
    71    68    70   am
    72   139   140    1
    73   101    99    1
    74   140   141    2
    75    67    66    1
    76   100    99    1
    77    35    38    1
    78    35    34    1
    79   105   104    2
    80    38    39    1
    81    99    98    2
    82   143   142    2
    83   143   145    1
    84    39    41    1
    85   141   142    1
    86    66    63    1
    87   104   103    1
    88   104   107   am
    89   103   106    1
    90   103   102    1
    91    98    97    1
    92    62    63    1
    93    63    64    1
    94   110   109    2
    95   107   108    1
    96   109   108    1
    97    78    77    1
    98   108   111    1
    99    97    96    1
   100    76    77    1
   101    76    75    1
   102    18    17   ar
   103    96    95    1
   104    64    65    2
   105    75    72    1
   106    19    17   ar
   107    17    16    1
   108    32    33   ar
   109    32    30   ar
   110    33    31   ar
   111    95    92    1
   112    30    27   ar
   113    92    91    1
   114    92    93    1
   115    72    71    1
   116    72    73    1
   117    31    29   ar
   118    27    29   ar
   119    27    25   ar
   120    90    89    1
   121    16    15    1
   122    29    28   ar
   123    24    25    1
   124    24    21    1
   125    73    74    2
   126    25    26   ar
   127    93    94    2
   128    88    89   ar
   129    88    86   ar
   130    23    22    2
   131    15    12    1
   132    89    87   ar
   133    28    26   ar
   134    22    21    1
   135    86    84   ar
   136    21    20    1
   137    87    85   ar
   138    12    11    1
   139    12    13    1
   140    84    85   ar
   141    84    83    1
   142    13    14    2
   143    83    80    1
   144    80    79    1
   145    80    81    1
   146    81    82    2
