@<TRIPOS>MOLECULE
tmp/1e2kB00.pdb
 159 150 0 0 0
SMALL
GASTEIGER

@<TRIPOS>ATOM
      1  N         16.6880   19.9650   15.4100 N.3    13  HIS13      -0.1241
      2  CA        15.6630   19.6960   14.4290 C.3    13  HIS13       0.1621
      3  C         14.7540   18.5930   14.9970 C.2    13  HIS13       0.2264
      4  O         15.1920   17.8270   15.8860 O.2    13  HIS13      -0.2867
      5  CB        16.2820   19.2370   13.1150 C.3    13  HIS13       0.0745
      6  CG        17.3520   18.1870   13.2350 C.ar   13  HIS13       0.0817
      7  ND1       18.6610   18.4720   13.5360 N.ar   13  HIS13      -0.2268
      8  CD2       17.2670   16.8250   13.1030 C.ar   13  HIS13       0.1154
      9  CE1       19.3500   17.3480   13.5590 C.ar   13  HIS13       0.1986
     10  NE2       18.5440   16.3460   13.3060 N.ar   13  HIS13      -0.2212
     11  N         12.8410   29.3270    7.7910 N.3    38  GLU38      -0.1245
     12  CA        14.1030   28.6260    7.4680 C.3    38  GLU38       0.1567
     13  C         14.2800   28.8980    5.9490 C.2    38  GLU38       0.2260
     14  O         13.2850   28.7770    5.2240 O.2    38  GLU38      -0.2867
     15  CB        13.8090   27.1740    7.7240 C.3    38  GLU38       0.0388
     16  CG        14.6000   26.0540    7.1840 C.3    38  GLU38       0.1160
     17  CD        13.9640   24.7040    7.5430 C.2    38  GLU38       0.3649
     18  OE1       14.1030   24.2710    8.6990 O.co2  38  GLU38      -0.2457
     19  OE2       13.3230   24.1060    6.6650 O.co2  38  GLU38      -0.2457
     20  N         14.9240   27.4310    3.2810 N.3    40  MET40      -0.1245
     21  CA        15.0590   26.1510    2.5990 C.3    40  MET40       0.1570
     22  C         15.3800   26.2660    1.1220 C.2    40  MET40       0.2261
     23  O         16.1300   25.4220    0.6210 O.2    40  MET40      -0.2867
     24  CB        13.7640   25.3470    2.8120 C.3    40  MET40       0.0387
     25  CG        13.7340   24.0140    2.0630 C.3    40  MET40       0.0595
     26  SD        15.2010   23.0390    2.5860 S.3    40  MET40      -0.1393
     27  CE        14.7030   22.7740    4.2940 C.3    40  MET40       0.0692
     28  N         19.0050   26.9000    0.6990 N.3    43  TRP43      -0.1241
     29  CA        19.7240   25.6560    0.9130 C.3    43  TRP43       0.1605
     30  C         19.5350   24.6700   -0.2230 C.2    43  TRP43       0.2264
     31  O         20.5160   23.9820   -0.5720 O.2    43  TRP43      -0.2867
     32  CB        19.1190   24.9920    2.1700 C.3    43  TRP43       0.0550
     33  CG        19.3780   25.7560    3.4260 C.ar   43  TRP43       0.0003
     34  CD1       20.3270   26.7410    3.5970 C.ar   43  TRP43       0.0946
     35  CD2       18.7830   25.5210    4.7030 C.ar   43  TRP43       0.0152
     36  NE1       20.3080   27.1490    4.9410 N.ar   43  TRP43      -0.2442
     37  CE2       19.3610   26.4250    5.6020 C.ar   43  TRP43       0.0810
     38  CE3       17.7830   24.6330    5.1490 C.ar   43  TRP43       0.0012
     39  CZ2       18.9830   26.4880    6.9570 C.ar   43  TRP43       0.0191
     40  CZ3       17.4200   24.6840    6.4760 C.ar   43  TRP43       0.0001
     41  CH2       18.0240   25.5940    7.3360 C.ar   43  TRP43       0.0015
     42  N         21.2560   20.1030    1.9520 N.3    52  ILE52      -0.1245
     43  CA        20.9450   19.1660    3.0360 C.3    52  ILE52       0.1561
     44  C         21.2820   17.7350    2.6240 C.2    52  ILE52       0.2260
     45  O         21.8670   16.9510    3.3550 O.2    52  ILE52      -0.2867
     46  CB        19.4650   19.2810    3.4400 C.3    52  ILE52       0.0252
     47  CG1       19.2370   20.7090    3.9790 C.3    52  ILE52       0.0019
     48  CG2       19.0970   18.2500    4.4940 C.3    52  ILE52       0.0019
     49  CD1       17.7700   21.1250    3.9910 C.3    52  ILE52       0.0001
     50  N         25.0150   17.1260    2.8560 N.3    55  ILE55      -0.1231
     51  CA        25.5240   16.9190    4.2400 C.3    55  ILE55       0.1692
     52  C         25.2170   15.5150    4.7210 C.2    55  ILE55       0.2592
     53  O         26.0660   14.8010    5.2560 O.2    55  ILE55      -0.2718
     54  CB        24.8510   17.9530    5.1470 C.3    55  ILE55       0.0266
     55  CG1       25.4720   19.3410    4.8500 C.3    55  ILE55       0.0019
     56  CG2       24.9160   17.6140    6.6240 C.3    55  ILE55       0.0020
     57  CD1       24.6620   20.5130    5.4710 C.3    55  ILE55       0.0001
     58  N         23.9870   15.0620    4.4830 N.am   56  TYR56      -0.1976
     59  CA        23.5810   13.7150    4.9430 C.3    56  TYR56       0.1639
     60  C         24.3410   12.6350    4.2130 C.2    56  TYR56       0.2290
     61  O         24.8450   11.6650    4.7880 O.2    56  TYR56      -0.2864
     62  CB        22.0500   13.6180    4.8890 C.3    56  TYR56       0.0560
     63  CG        21.5200   14.3800    6.1140 C.ar   56  TYR56      -0.0198
     64  CD1       21.4080   13.6800    7.3150 C.ar   56  TYR56      -0.0009
     65  CD2       21.2110   15.7250    6.1080 C.ar   56  TYR56      -0.0009
     66  CE1       20.9580   14.2980    8.4620 C.ar   56  TYR56       0.0417
     67  CE2       20.7530   16.3550    7.2470 C.ar   56  TYR56       0.0417
     68  CZ        20.6290   15.6430    8.4220 C.ar   56  TYR56       0.1957
     69  OH        20.1970   16.2270    9.5970 O.3    56  TYR56      -0.2866
     70  N         28.3280   24.0900    5.4250 N.3    80  GLN80      -0.1245
     71  CA        27.9030   24.9340    6.5390 C.3    80  GLN80       0.1566
     72  C         27.9470   26.4020    6.2260 C.2    80  GLN80       0.2260
     73  O         27.1290   27.2070    6.6740 O.2    80  GLN80      -0.2867
     74  CB        28.6820   24.5660    7.8190 C.3    80  GLN80       0.0367
     75  CG        28.1050   23.3100    8.4500 C.3    80  GLN80       0.0905
     76  CD        26.6740   23.4480    8.9030 C.2    80  GLN80       0.2608
     77  OE1       25.9240   22.4820    8.8060 O.2    80  GLN80      -0.2717
     78  NE2       26.2520   24.5990    9.4710 N.am   80  GLN80      -0.0878
     79  N         24.7970   26.9130    4.4160 N.3    83  MET83      -0.1245
     80  CA        23.6560   26.8790    5.3110 C.3    83  MET83       0.1570
     81  C         23.5170   28.1940    6.0870 C.2    83  MET83       0.2261
     82  O         22.3800   28.6830    6.3100 O.2    83  MET83      -0.2867
     83  CB        23.8200   25.7390    6.3220 C.3    83  MET83       0.0387
     84  CG        23.8480   24.3480    5.7390 C.3    83  MET83       0.0595
     85  SD        22.3130   23.9670    4.8100 S.3    83  MET83      -0.1393
     86  CE        21.2080   23.6340    6.2170 C.3    83  MET83       0.0692
     87  N         21.3270   33.5720    7.1340 N.3    87  TYR87      -0.1241
     88  CA        21.2030   34.1170    8.4950 C.3    87  TYR87       0.1605
     89  C         22.1840   35.2580    8.7430 C.2    87  TYR87       0.2264
     90  O         21.8390   36.2550    9.3330 O.2    87  TYR87      -0.2867
     91  CB        21.5090   33.0920    9.5840 C.3    87  TYR87       0.0534
     92  CG        20.6130   31.8850    9.5730 C.ar   87  TYR87      -0.0201
     93  CD1       19.2580   31.8020    9.6920 C.ar   87  TYR87      -0.0009
     94  CD2       21.3270   30.6830    9.4550 C.ar   87  TYR87      -0.0009
     95  CE1       18.5880   30.5640    9.6650 C.ar   87  TYR87       0.0417
     96  CE2       20.6990   29.4620    9.4510 C.ar   87  TYR87       0.0417
     97  CZ        19.3210   29.4230    9.5320 C.ar   87  TYR87       0.1957
     98  OH        18.8140   28.1230    9.5390 O.3    87  TYR87      -0.2866
     99  N         15.5000   30.0910   13.6990 N.3   115  ARG115     -0.1245
    100  CA        16.8980   30.0330   13.9760 C.3   115  ARG115      0.1563
    101  C         17.6480   31.3410   13.9770 C.2   115  ARG115      0.2260
    102  O         17.3200   32.3590   13.3640 O.2   115  ARG115     -0.2867
    103  CB        17.6680   29.0100   13.1260 C.3   115  ARG115      0.0307
    104  CG        17.0950   27.6000   13.2230 C.3   115  ARG115      0.0489
    105  CD        17.8920   26.6220   12.4230 C.3   115  ARG115      0.2205
    106  NE        17.4560   25.2350   12.5330 N.pl3 115  ARG115     -0.0865
    107  CZ        17.7150   24.3890   13.4920 C.cat 115  ARG115      0.5346
    108  NH1       18.4000   24.7720   14.5710 N.pl3 115  ARG115      0.1354
    109  NH2       17.2430   23.1500   13.3500 N.pl3 115  ARG115      0.1354
    110  N         23.1900   28.8810   14.9240 N.3   119  ALA119     -0.1231
    111  CA        22.8580   27.4940   14.5790 C.3   119  ALA119      0.1694
    112  C         23.8500   27.0180   13.4710 C.2   119  ALA119      0.2591
    113  O         24.4090   25.9670   13.6040 O.2   119  ALA119     -0.2718
    114  CB        21.4550   27.4060   13.9870 C.3   119  ALA119      0.0304
    115  N         24.0090   27.8670   12.4670 N.am  120  ALA120     -0.1980
    116  CA        24.8970   27.4320   11.3620 C.3   120  ALA120      0.1597
    117  C         26.3180   27.7510   11.5590 C.2   120  ALA120      0.2287
    118  O         27.1940   27.1920   10.8540 O.2   120  ALA120     -0.2864
    119  CB        24.3700   28.1180   10.0710 C.3   120  ALA120      0.0319
    120  N         25.5980   23.4710   14.5860 N.3   124  TYR124     -0.1241
    121  CA        25.6890   22.3520   13.6340 C.3   124  TYR124      0.1605
    122  C         27.1380   22.0340   13.3580 C.2   124  TYR124      0.2264
    123  O         27.4880   20.8560   13.3800 O.2   124  TYR124     -0.2867
    124  CB        24.7880   22.6170   12.4370 C.3   124  TYR124      0.0534
    125  CG        23.3750   22.2140   12.7800 C.ar  124  TYR124     -0.0201
    126  CD1       22.9350   20.9140   12.5930 C.ar  124  TYR124     -0.0009
    127  CD2       22.4720   23.1480   13.2920 C.ar  124  TYR124     -0.0009
    128  CE1       21.6480   20.5090   12.9220 C.ar  124  TYR124      0.0417
    129  CE2       21.1850   22.7710   13.6430 C.ar  124  TYR124      0.0417
    130  CZ        20.7870   21.4580   13.4540 C.ar  124  TYR124      0.1957
    131  OH        19.4890   21.1230   13.7550 O.3   124  TYR124     -0.2866
    132  N         28.8550   18.4120   14.0310 N.3   128  ARG128     -0.1245
    133  CA        29.5870   17.6680   13.0170 C.3   128  ARG128      0.1563
    134  C         31.0140   17.3430   13.4850 C.2   128  ARG128      0.2260
    135  O         31.5550   16.2810   13.1720 O.2   128  ARG128     -0.2867
    136  CB        29.5700   18.3610   11.6440 C.3   128  ARG128      0.0307
    137  CG        28.1840   18.3610   11.0380 C.3   128  ARG128      0.0489
    138  CD        27.7570   17.0240   10.4270 C.3   128  ARG128      0.2205
    139  NE        26.3200   17.0450   10.1010 N.pl3 128  ARG128     -0.0865
    140  CZ        25.5950   15.9330    9.9050 C.cat 128  ARG128      0.5346
    141  NH1       26.1760   14.7330    9.9900 N.pl3 128  ARG128      0.1354
    142  NH2       24.3090   15.9920    9.6390 N.pl3 128  ARG128      0.1354
    143  N         16.7940   14.6580    4.7960 N.3   173  GLU173     -0.1245
    144  CA        17.6300   14.0460    5.8100 C.3   173  GLU173      0.1567
    145  C         17.6300   12.5090    5.7230 C.2   173  GLU173      0.2260
    146  O         17.0130   11.8770    4.8780 O.2   173  GLU173     -0.2867
    147  CB        17.1830   14.4020    7.2200 C.3   173  GLU173      0.0388
    148  CG        17.3090   15.8040    7.7520 C.3   173  GLU173      0.1160
    149  CD        17.1800   15.8200    9.2800 C.2   173  GLU173      0.3649
    150  OE1       16.3400   15.0630    9.8220 O.co2 173  GLU173     -0.2457
    151  OE2       17.9350   16.5770    9.9370 O.co2 173  GLU173     -0.2457
    152  N         23.7830   11.7260   15.1790 N.3   179  MET179     -0.1245
    153  CA        23.6910   13.1410   14.8740 C.3   179  MET179      0.1570
    154  C         22.6130   13.7590   15.7660 C.2   179  MET179      0.2261
    155  O         22.8500   14.8400   16.2810 O.2   179  MET179     -0.2867
    156  CB        23.4400   13.4640   13.4110 C.3   179  MET179      0.0387
    157  CG        23.3060   14.9550   13.1110 C.3   179  MET179      0.0595
    158  SD        24.8560   15.8660   13.4250 S.3   179  MET179     -0.1393
    159  CE        24.3570   17.5350   13.0990 C.3   179  MET179      0.0692
@<TRIPOS>BOND
     1    31    30    2
     2    30    29    1
     3    23    22    2
     4    28    29    1
     5    29    32    1
     6    22    21    1
     7    42    43    1
     8    25    26    1
     9    25    24    1
    10    32    33    1
    11    26    27    1
    12    21    24    1
    13    21    20    1
    14    44    43    1
    15    44    45    2
    16    50    51    1
    17    43    46    1
    18    33    34   ar
    19    33    35   ar
    20    46    47    1
    21    46    48    1
    22    34    36   ar
    23    47    49    1
    24    60    61    2
    25    60    59    1
    26    51    52    1
    27    51    54    1
    28    79    80    1
    29    58    52   am
    30    58    59    1
    31    35    38   ar
    32    35    37   ar
    33    52    53    2
    34   143   144    1
    35    85    84    1
    36    85    86    1
    37    55    54    1
    38    55    57    1
    39   146   145    2
    40    62    59    1
    41    62    63    1
    42    36    37   ar
    43    54    56    1
    44    38    40   ar
    45    14    13    2
    46    80    81    1
    47    80    83    1
    48    70    71    1
    49    37    39   ar
    50   145   144    1
    51    84    83    1
    52   144   147    1
    53    13    12    1
    54    81    82    2
    55    65    63   ar
    56    65    67   ar
    57    63    64   ar
    58    72    71    1
    59    72    73    2
    60    40    41   ar
    61    71    74    1
    62    19    17   ar
    63    39    41   ar
    64    87    88    1
    65    16    17    1
    66    16    15    1
    67   147   148    1
    68    67    68   ar
    69    64    66   ar
    70    12    15    1
    71    12    11    1
    72    17    18   ar
    73   148   149    1
    74    74    75    1
    75    68    66   ar
    76    68    69    1
    77    75    76    1
    78    88    89    1
    79    88    91    1
    80    89    90    2
    81    77    76    2
    82    76    78   am
    83   149   150   ar
    84   149   151   ar
    85    96    94   ar
    86    96    97   ar
    87    94    92   ar
    88    97    98    1
    89    97    95   ar
    90    92    91    1
    91    92    93   ar
    92   142   140    1
    93    95    93   ar
    94   140   141    1
    95   140   139    2
    96   119   116    1
    97   139   138    1
    98   138   137    1
    99   118   117    2
   100   137   136    1
   101   116   117    1
   102   116   115    1
   103   136   133    1
   104   105   106    1
   105   105   104    1
   106   124   125    1
   107   124   121    1
   108   115   112   am
   109   106   107    2
   110   126   125   ar
   111   126   128   ar
   112   125   127   ar
   113   128   130   ar
   114   133   134    1
   115   133   132    1
   116   159   158    1
   117     8     6   ar
   118     8    10   ar
   119   157   156    1
   120   157   158    1
   121     5     6    1
   122     5     2    1
   123   103   104    1
   124   103   100    1
   125   135   134    2
   126     6     7   ar
   127   127   129   ar
   128    10     9   ar
   129   109   107    1
   130   122   123    2
   131   122   121    1
   132   102   101    2
   133   156   153    1
   134   130   129   ar
   135   130   131    1
   136   112   113    2
   137   112   111    1
   138   107   108    1
   139     7     9   ar
   140   121   120    1
   141    99   100    1
   142   100   101    1
   143   114   111    1
   144     2     3    1
   145     2     1    1
   146   111   110    1
   147   153   152    1
   148   153   154    1
   149     3     4    2
   150   154   155    2
