@<TRIPOS>MOLECULE
tmp/1e2mB00.pdb
 151 143 0 0 0
SMALL
GASTEIGER

@<TRIPOS>ATOM
      1  N         16.7980   19.9920   15.5750 N.3    13  HIS13      -0.1241
      2  CA        15.7050   19.8450   14.6100 C.3    13  HIS13       0.1621
      3  C         14.8120   18.6760   15.0140 C.2    13  HIS13       0.2264
      4  O         15.2560   17.7700   15.7310 O.2    13  HIS13      -0.2867
      5  CB        16.2870   19.5940   13.2130 C.3    13  HIS13       0.0745
      6  CG        17.1990   18.4050   13.1830 C.ar   13  HIS13       0.0817
      7  ND1       18.5070   18.4650   13.6120 N.ar   13  HIS13      -0.2268
      8  CD2       16.9980   17.1280   12.7780 C.ar   13  HIS13       0.1154
      9  CE1       19.0730   17.2820   13.4780 C.ar   13  HIS13       0.1986
     10  NE2       18.1820   16.4530   12.9730 N.ar   13  HIS13      -0.2212
     11  N          9.6020   23.0810   16.3400 N.3    17  LYS17      -0.1245
     12  CA         9.9170   24.4920   16.3000 C.3    17  LYS17       0.1561
     13  C          9.1110   25.2670   15.2620 C.2    17  LYS17       0.2260
     14  O          8.4870   26.2830   15.5710 O.2    17  LYS17      -0.2867
     15  CB        11.4170   24.6750   15.9590 C.3    17  LYS17       0.0271
     16  CG        12.3540   23.9580   16.9030 C.3    17  LYS17       0.0035
     17  CD        13.8220   24.1870   16.6250 C.3    17  LYS17       0.0206
     18  CE        14.3110   23.6260   15.3130 C.3    17  LYS17       0.1093
     19  NZ        13.8970   24.4270   14.1270 N.3    17  LYS17      -0.1314
     20  N         12.6270   29.2330    7.8290 N.3    38  GLU38      -0.1245
     21  CA        13.8010   28.4160    7.4980 C.3    38  GLU38       0.1567
     22  C         14.0320   28.6470    6.0040 C.2    38  GLU38       0.2260
     23  O         13.0840   28.5530    5.2170 O.2    38  GLU38      -0.2867
     24  CB        13.4140   26.9730    7.7620 C.3    38  GLU38       0.0388
     25  CG        14.4870   25.9240    7.6030 C.3    38  GLU38       0.1160
     26  CD        13.8700   24.5410    7.8140 C.2    38  GLU38       0.3649
     27  OE1       13.0990   24.1210    6.9270 O.co2  38  GLU38      -0.2457
     28  OE2       14.1480   23.9260    8.8570 O.co2  38  GLU38      -0.2457
     29  N         14.9200   27.0350    3.3910 N.3    40  MET40      -0.1245
     30  CA        15.0510   25.7740    2.6890 C.3    40  MET40       0.1570
     31  C         15.3770   25.9330    1.2140 C.2    40  MET40       0.2261
     32  O         16.2250   25.2040    0.6880 O.2    40  MET40      -0.2867
     33  CB        13.7880   24.9200    2.8800 C.3    40  MET40       0.0387
     34  CG        13.8540   23.5400    2.2520 C.3    40  MET40       0.0595
     35  SD        15.1540   22.4950    2.9410 S.3    40  MET40      -0.1393
     36  CE        14.5270   22.2230    4.5970 C.3    40  MET40       0.0692
     37  N         18.9150   26.6310    0.7430 N.3    43  TRP43      -0.1241
     38  CA        19.6560   25.4120    0.9960 C.3    43  TRP43       0.1605
     39  C         19.4760   24.3650   -0.0980 C.2    43  TRP43       0.2264
     40  O         20.4020   23.5860   -0.3560 O.2    43  TRP43      -0.2867
     41  CB        19.2860   24.7800    2.3380 C.3    43  TRP43       0.0550
     42  CG        19.4950   25.6330    3.5490 C.ar   43  TRP43       0.0003
     43  CD1       20.3820   26.6540    3.7130 C.ar   43  TRP43       0.0946
     44  CD2       18.8390   25.4700    4.8160 C.ar   43  TRP43       0.0152
     45  NE1       20.2910   27.1680    4.9840 N.ar   43  TRP43      -0.2442
     46  CE2       19.3540   26.4540    5.6860 C.ar   43  TRP43       0.0810
     47  CE3       17.8590   24.5920    5.2980 C.ar   43  TRP43       0.0012
     48  CZ2       18.9190   26.5850    7.0040 C.ar   43  TRP43       0.0191
     49  CZ3       17.4310   24.7240    6.6010 C.ar   43  TRP43       0.0001
     50  CH2       17.9610   25.7170    7.4430 C.ar   43  TRP43       0.0015
     51  N         21.1830   19.8720    2.6030 N.3    52  ILE52      -0.1245
     52  CA        20.9320   18.9090    3.6670 C.3    52  ILE52       0.1561
     53  C         21.2220   17.4920    3.2140 C.2    52  ILE52       0.2260
     54  O         21.9040   16.7470    3.9260 O.2    52  ILE52      -0.2867
     55  CB        19.5040   19.0510    4.2150 C.3    52  ILE52       0.0252
     56  CG1       19.3380   20.4310    4.8680 C.3    52  ILE52       0.0019
     57  CG2       19.2000   17.9450    5.2150 C.3    52  ILE52       0.0019
     58  CD1       17.9720   20.6930    5.4530 C.3    52  ILE52       0.0001
     59  N         24.8800   16.9090    3.2160 N.3    55  ILE55      -0.1231
     60  CA        25.4290   16.7840    4.5640 C.3    55  ILE55       0.1692
     61  C         25.2380   15.3640    5.0750 C.2    55  ILE55       0.2592
     62  O         26.1910   14.7070    5.5160 O.2    55  ILE55      -0.2718
     63  CB        24.8300   17.8320    5.5140 C.3    55  ILE55       0.0266
     64  CG1       25.3850   19.2230    5.1690 C.3    55  ILE55       0.0019
     65  CG2       25.0900   17.5130    6.9760 C.3    55  ILE55       0.0020
     66  CD1       24.7650   20.3710    5.9230 C.3    55  ILE55       0.0001
     67  N         24.0190   14.8480    4.9760 N.am   56  TYR56      -0.1976
     68  CA        23.7020   13.5050    5.4260 C.3    56  TYR56       0.1639
     69  C         24.3750   12.4230    4.6170 C.2    56  TYR56       0.2290
     70  O         24.8100   11.4130    5.1860 O.2    56  TYR56      -0.2864
     71  CB        22.1830   13.3050    5.5270 C.3    56  TYR56       0.0560
     72  CG        21.6440   14.0540    6.7400 C.ar   56  TYR56      -0.0198
     73  CD1       21.2340   15.3730    6.6430 C.ar   56  TYR56      -0.0009
     74  CD2       21.5780   13.4290    7.9780 C.ar   56  TYR56      -0.0009
     75  CE1       20.7540   16.0490    7.7480 C.ar   56  TYR56       0.0417
     76  CE2       21.1010   14.0970    9.0900 C.ar   56  TYR56       0.0417
     77  CZ        20.6890   15.4080    8.9680 C.ar   56  TYR56       0.1957
     78  OH        20.2110   16.0790   10.0720 O.3    56  TYR56      -0.2866
     79  N         28.3320   24.0070    5.6010 N.3    80  GLN80      -0.1245
     80  CA        27.9500   24.8790    6.7020 C.3    80  GLN80       0.1566
     81  C         27.9940   26.3470    6.3200 C.2    80  GLN80       0.2260
     82  O         27.1860   27.1360    6.8170 O.2    80  GLN80      -0.2867
     83  CB        28.7310   24.5910    7.9790 C.3    80  GLN80       0.0367
     84  CG        28.2760   23.3450    8.7210 C.3    80  GLN80       0.0905
     85  CD        26.7900   23.3770    9.0490 C.2    80  GLN80       0.2608
     86  OE1       26.0490   22.4410    8.7380 O.2    80  GLN80      -0.2717
     87  NE2       26.3370   24.4570    9.6710 N.am   80  GLN80      -0.0878
     88  N         24.7700   26.7820    4.5450 N.3    83  MET83      -0.1245
     89  CA        23.6860   26.7140    5.5060 C.3    83  MET83       0.1570
     90  C         23.5100   28.0150    6.2790 C.2    83  MET83       0.2261
     91  O         22.3770   28.4360    6.5070 O.2    83  MET83      -0.2867
     92  CB        23.8630   25.5660    6.5010 C.3    83  MET83       0.0387
     93  CG        23.7940   24.1770    5.9110 C.3    83  MET83       0.0595
     94  SD        22.1860   23.7010    5.2920 S.3    83  MET83      -0.1393
     95  CE        21.2280   23.4940    6.7930 C.3    83  MET83       0.0692
     96  N         21.2030   33.4520    7.3550 N.3    87  TYR87      -0.1241
     97  CA        21.1370   33.9820    8.7110 C.3    87  TYR87       0.1605
     98  C         22.1420   35.1320    8.8520 C.2    87  TYR87       0.2264
     99  O         21.8170   36.1790    9.3950 O.2    87  TYR87      -0.2867
    100  CB        21.4450   32.9500    9.7860 C.3    87  TYR87       0.0534
    101  CG        20.7050   31.6440    9.7400 C.ar   87  TYR87      -0.0201
    102  CD1       19.3310   31.5800    9.5650 C.ar   87  TYR87      -0.0009
    103  CD2       21.3830   30.4440    9.9170 C.ar   87  TYR87      -0.0009
    104  CE1       18.6570   30.3730    9.5370 C.ar   87  TYR87       0.0417
    105  CE2       20.7260   29.2310    9.8940 C.ar   87  TYR87       0.0417
    106  CZ        19.3600   29.2050    9.6980 C.ar   87  TYR87       0.1957
    107  OH        18.7080   27.9950    9.6770 O.3    87  TYR87      -0.2866
    108  N         15.5950   30.0500   13.7500 N.3   114  ARG114     -0.1245
    109  CA        16.9790   29.9160   14.0760 C.3   114  ARG114      0.1563
    110  C         17.7550   31.2290   14.0590 C.2   114  ARG114      0.2260
    111  O         17.3470   32.2450   13.5160 O.2   114  ARG114     -0.2867
    112  CB        17.7160   28.8810   13.2170 C.3   114  ARG114      0.0307
    113  CG        17.2220   27.4620   13.4690 C.3   114  ARG114      0.0489
    114  CD        17.9100   26.4770   12.5310 C.3   114  ARG114      0.2205
    115  NE        17.3970   25.1330   12.7340 N.pl3 114  ARG114     -0.0865
    116  CZ        17.6200   24.3670   13.7910 C.cat 114  ARG114      0.5346
    117  NH1       18.3950   24.7930   14.7850 N.pl3 114  ARG114      0.1354
    118  NH2       17.0780   23.1580   13.8370 N.pl3 114  ARG114      0.1354
    119  N         23.3180   28.7720   15.1420 N.3   118  ALA118     -0.1231
    120  CA        22.9520   27.4080   14.7800 C.3   118  ALA118      0.1694
    121  C         23.9170   26.8790   13.7100 C.2   118  ALA118      0.2591
    122  O         24.4260   25.7690   13.8060 O.2   118  ALA118     -0.2718
    123  CB        21.5180   27.3780   14.2590 C.3   118  ALA118      0.0304
    124  N         24.1780   27.6800   12.6830 N.am  119  ALA119     -0.1980
    125  CA        25.0430   27.2970   11.5800 C.3   119  ALA119      0.1597
    126  C         26.5150   27.6020   11.7900 C.2   119  ALA119      0.2287
    127  O         27.3860   26.9610   11.1990 O.2   119  ALA119     -0.2864
    128  CB        24.5370   27.9840   10.3080 C.3   119  ALA119      0.0319
    129  N         25.6730   23.2830   14.8000 N.3   123  TYR123     -0.1241
    130  CA        25.8050   22.1530   13.8630 C.3   123  TYR123      0.1605
    131  C         27.2430   21.7780   13.6410 C.2   123  TYR123      0.2264
    132  O         27.6100   20.5910   13.7410 O.2   123  TYR123     -0.2867
    133  CB        24.9330   22.3410   12.6280 C.3   123  TYR123      0.0534
    134  CG        23.4880   21.9750   12.9660 C.ar  123  TYR123     -0.0201
    135  CD1       22.6190   22.9080   13.5100 C.ar  123  TYR123     -0.0009
    136  CD2       23.0240   20.6880   12.7660 C.ar  123  TYR123     -0.0009
    137  CE1       21.3200   22.5690   13.8290 C.ar  123  TYR123      0.0417
    138  CE2       21.7230   20.3350   13.0710 C.ar  123  TYR123      0.0417
    139  CZ        20.8780   21.2800   13.6050 C.ar  123  TYR123      0.1957
    140  OH        19.5830   20.9350   13.9230 O.3   123  TYR123     -0.2866
    141  N         28.9540   18.2010   14.3160 N.3   127  ARG127     -0.1245
    142  CA        29.7060   17.4820   13.2930 C.3   127  ARG127      0.1563
    143  C         31.1190   17.1770   13.7750 C.2   127  ARG127      0.2260
    144  O         31.6930   16.1540   13.3920 O.2   127  ARG127     -0.2867
    145  CB        29.7020   18.1830   11.9410 C.3   127  ARG127      0.0307
    146  CG        28.3430   18.1890   11.2440 C.3   127  ARG127      0.0489
    147  CD        27.8630   16.7840   10.9330 C.3   127  ARG127      0.2205
    148  NE        26.4620   16.7450   10.5380 N.pl3 127  ARG127     -0.0865
    149  CZ        25.7740   15.6460   10.2600 C.cat 127  ARG127      0.5346
    150  NH1       26.3570   14.4580   10.3250 N.pl3 127  ARG127      0.1354
    151  NH2       24.4950   15.7230    9.9200 N.pl3 127  ARG127      0.1354
@<TRIPOS>BOND
     1    40    39    2
     2    39    38    1
     3    32    31    2
     4    37    38    1
     5    38    41    1
     6    31    30    1
     7    34    33    1
     8    34    35    1
     9    41    42    1
    10    51    52    1
    11    30    33    1
    12    30    29    1
    13    35    36    1
    14    53    52    1
    15    53    54    2
    16    59    60    1
    17    42    43   ar
    18    42    44   ar
    19    52    55    1
    20    43    45   ar
    21    55    56    1
    22    55    57    1
    23    88    89    1
    24    60    61    1
    25    60    63    1
    26    69    70    2
    27    69    68    1
    28    44    47   ar
    29    44    46   ar
    30    56    58    1
    31    67    61   am
    32    67    68    1
    33    45    46   ar
    34    61    62    2
    35    64    63    1
    36    64    66    1
    37    23    22    2
    38    94    93    1
    39    94    95    1
    40    47    49   ar
    41    68    71    1
    42    89    90    1
    43    89    92    1
    44    63    65    1
    45    71    72    1
    46    79    80    1
    47    46    48   ar
    48    93    92    1
    49    22    21    1
    50    90    91    2
    51    81    80    1
    52    81    82    2
    53    49    50   ar
    54    73    72   ar
    55    73    75   ar
    56    80    83    1
    57    72    74   ar
    58    27    26   ar
    59    48    50   ar
    60    96    97    1
    61    21    24    1
    62    21    20    1
    63    25    24    1
    64    25    26    1
    65    75    77   ar
    66    26    28   ar
    67    74    76   ar
    68    83    84    1
    69    97    98    1
    70    97   100    1
    71    84    85    1
    72    86    85    2
    73    98    99    2
    74    77    76   ar
    75    77    78    1
    76    85    87   am
    77   104   102   ar
    78   104   106   ar
    79   102   101   ar
    80   107   106    1
    81   106   105   ar
    82   101   100    1
    83   101   103   ar
    84   105   103   ar
    85   151   149    1
    86   149   150    1
    87   149   148    2
    88   128   125    1
    89   148   147    1
    90   147   146    1
    91   127   126    2
    92   146   145    1
    93   125   126    1
    94   125   124    1
    95   145   142    1
    96   114   115    1
    97   114   113    1
    98   133   134    1
    99   133   130    1
   100   124   121   am
   101   115   116    2
   102   136   134   ar
   103   136   138   ar
   104     8    10   ar
   105     8     6   ar
   106   134   135   ar
   107    10     9   ar
   108   138   139   ar
   109     6     5    1
   110     6     7   ar
   111     5     2    1
   112   112   113    1
   113   112   109    1
   114   142   143    1
   115   142   141    1
   116   144   143    2
   117     9     7   ar
   118   135   137   ar
   119   111   110    2
   120   139   137   ar
   121   139   140    1
   122   131   132    2
   123   131   130    1
   124   121   122    2
   125   121   120    1
   126   108   109    1
   127   116   118    1
   128   116   117    1
   129   130   129    1
   130   110   109    1
   131    19    18    1
   132   123   120    1
   133     2     3    1
   134     2     1    1
   135   120   119    1
   136     3     4    2
   137    13    14    2
   138    13    12    1
   139    18    17    1
   140    15    12    1
   141    15    16    1
   142    12    11    1
   143    17    16    1
