@<TRIPOS>MOLECULE
tmp/1e2nA00.pdb
 170 161 0 0 0
SMALL
GASTEIGER

@<TRIPOS>ATOM
      1  N         49.5860   40.3860   -3.2250 N.3    13  HIS13      -0.1241
      2  CA        50.8560   39.9760   -2.6470 C.3    13  HIS13       0.1621
      3  C         52.0050   40.0130   -3.6470 C.2    13  HIS13       0.2264
      4  O         51.8250   39.9290   -4.8600 O.2    13  HIS13      -0.2867
      5  CB        50.7600   38.5900   -2.0320 C.3    13  HIS13       0.0745
      6  CG        50.5400   37.4510   -2.9670 C.ar   13  HIS13       0.0817
      7  ND1       49.3520   37.2310   -3.6240 N.ar   13  HIS13      -0.2268
      8  CD2       51.3660   36.4380   -3.3370 C.ar   13  HIS13       0.1154
      9  CE1       49.4490   36.1510   -4.3740 C.ar   13  HIS13       0.1986
     10  NE2       50.6610   35.6470   -4.2150 N.ar   13  HIS13      -0.2212
     11  N         52.0790   38.6350    9.4730 N.3    38  GLU38      -0.1245
     12  CA        51.4130   37.5480    8.7700 C.3    38  GLU38       0.1567
     13  C         51.4030   36.3000    9.6390 C.2    38  GLU38       0.2260
     14  O         52.4550   35.8700   10.1210 O.2    38  GLU38      -0.2867
     15  CB        52.2260   37.3070    7.4970 C.3    38  GLU38       0.0388
     16  CG        51.8320   36.0790    6.7140 C.3    38  GLU38       0.1160
     17  CD        52.6670   35.9790    5.4450 C.2    38  GLU38       0.3649
     18  OE1       53.9070   35.9320    5.5860 O.co2  38  GLU38      -0.2457
     19  OE2       52.0630   35.9660    4.3600 O.co2  38  GLU38      -0.2457
     20  N         51.6800   33.1110    9.4050 N.3    40  MET40      -0.1245
     21  CA        52.1670   31.9930    8.6280 C.3    40  MET40       0.1570
     22  C         52.0670   30.6610    9.3510 C.2    40  MET40       0.2261
     23  O         51.6740   29.6540    8.7470 O.2    40  MET40      -0.2867
     24  CB        53.6100   32.2500    8.1670 C.3    40  MET40       0.0387
     25  CG        54.1810   31.1520    7.2890 C.3    40  MET40       0.0595
     26  SD        53.1040   30.7060    5.9200 S.3    40  MET40      -0.1393
     27  CE        53.1950   32.1540    4.8850 C.3    40  MET40       0.0692
     28  N         48.5700   29.1160    9.0750 N.3    43  TRP43      -0.1241
     29  CA        48.2390   28.5910    7.7640 C.3    43  TRP43       0.1605
     30  C         48.9420   27.2860    7.4050 C.2    43  TRP43       0.2264
     31  O         48.3510   26.4410    6.7190 O.2    43  TRP43      -0.2867
     32  CB        48.4970   29.6180    6.6800 C.3    43  TRP43       0.0550
     33  CG        47.7830   30.9190    6.7950 C.ar   43  TRP43       0.0003
     34  CD1       46.5070   31.1520    7.2170 C.ar   43  TRP43       0.0946
     35  CD2       48.3070   32.1990    6.4030 C.ar   43  TRP43       0.0152
     36  NE1       46.2110   32.4900    7.1440 N.ar   43  TRP43      -0.2442
     37  CE2       47.3000   33.1560    6.6400 C.ar   43  TRP43       0.0810
     38  CE3       49.5370   32.6160    5.8800 C.ar   43  TRP43       0.0012
     39  CZ2       47.4840   34.5110    6.3740 C.ar   43  TRP43       0.0191
     40  CZ3       49.7120   33.9570    5.6150 C.ar   43  TRP43       0.0001
     41  CH2       48.6950   34.8890    5.8670 C.ar   43  TRP43       0.0015
     42  N         48.4490   27.1770    1.8590 N.3    52  ILE52      -0.1245
     43  CA        48.7890   27.9090    0.6310 C.3    52  ILE52       0.1561
     44  C         49.1440   26.9460   -0.4870 C.2    52  ILE52       0.2260
     45  O         48.7570   27.1380   -1.6430 O.2    52  ILE52      -0.2867
     46  CB        49.9130   28.9140    0.9200 C.3    52  ILE52       0.0252
     47  CG1       49.4370   29.8670    2.0270 C.3    52  ILE52       0.0019
     48  CG2       50.3050   29.6850   -0.3280 C.3    52  ILE52       0.0019
     49  CD1       50.5250   30.7000    2.6490 C.3    52  ILE52       0.0001
     50  N         46.0010   25.3760   -1.9680 N.3    55  ILE55      -0.1231
     51  CA        45.3300   26.3370   -2.8230 C.3    55  ILE55       0.1692
     52  C         45.9100   26.3160   -4.2290 C.2    55  ILE55       0.2592
     53  O         45.1900   26.0660   -5.1990 O.2    55  ILE55      -0.2718
     54  CB        45.4130   27.7550   -2.2200 C.3    55  ILE55       0.0266
     55  CG1       44.4670   27.8530   -1.0140 C.3    55  ILE55       0.0019
     56  CG2       45.1310   28.8450   -3.2320 C.3    55  ILE55       0.0020
     57  CD1       44.5900   29.1450   -0.2400 C.3    55  ILE55       0.0001
     58  N         47.2110   26.5740   -4.3370 N.am   56  TYR56      -0.1976
     59  CA        47.8840   26.5870   -5.6300 C.3    56  TYR56       0.1639
     60  C         47.8380   25.2320   -6.3000 C.2    56  TYR56       0.2290
     61  O         47.5910   25.1700   -7.5140 O.2    56  TYR56      -0.2864
     62  CB        49.2930   27.1580   -5.5240 C.3    56  TYR56       0.0560
     63  CG        49.2860   28.6590   -5.2800 C.ar   56  TYR56      -0.0198
     64  CD1       49.1520   29.5330   -6.3510 C.ar   56  TYR56      -0.0009
     65  CD2       49.3910   29.1870   -4.0060 C.ar   56  TYR56      -0.0009
     66  CE1       49.1400   30.9010   -6.1550 C.ar   56  TYR56       0.0417
     67  CE2       49.3770   30.5560   -3.8010 C.ar   56  TYR56       0.0417
     68  CZ        49.2540   31.4050   -4.8770 C.ar   56  TYR56       0.1957
     69  OH        49.2370   32.7670   -4.6890 O.3    56  TYR56      -0.2866
     70  N         39.7750   29.2710    2.4650 N.3    80  GLN80      -0.1245
     71  CA        39.6430   30.6710    2.8470 C.3    80  GLN80       0.1566
     72  C         39.1020   30.8630    4.2510 C.2    80  GLN80       0.2260
     73  O         39.3940   31.8950    4.8690 O.2    80  GLN80      -0.2867
     74  CB        38.8070   31.4400    1.8240 C.3    80  GLN80       0.0367
     75  CG        39.5070   31.6380    0.4890 C.3    80  GLN80       0.0905
     76  CD        40.7590   32.4710    0.6010 C.2    80  GLN80       0.2608
     77  OE1       41.8070   32.0680    0.0930 O.2    80  GLN80      -0.2717
     78  NE2       40.7030   33.6200    1.2590 N.am   80  GLN80      -0.0878
     79  N         42.2260   30.6570    6.1730 N.3    83  MET83      -0.1245
     80  CA        43.1080   31.7890    5.9170 C.3    83  MET83       0.1570
     81  C         42.7090   33.0570    6.6590 C.2    83  MET83       0.2261
     82  O         43.5790   33.7890    7.1480 O.2    83  MET83      -0.2867
     83  CB        43.1200   32.0630    4.4080 C.3    83  MET83       0.0387
     84  CG        43.6760   30.9060    3.5810 C.3    83  MET83       0.0595
     85  SD        45.4660   30.7120    3.8570 S.3    83  MET83      -0.1393
     86  CE        45.9850   32.3500    3.3560 C.3    83  MET83       0.0692
     87  N         42.6360   36.9670   11.1010 N.3    87  TYR87      -0.1241
     88  CA        42.2180   38.3420   10.8940 C.3    87  TYR87       0.1605
     89  C         40.8810   38.6190   11.5870 C.2    87  TYR87       0.2264
     90  O         40.6900   39.6620   12.2050 O.2    87  TYR87      -0.2867
     91  CB        42.0450   38.6860    9.4190 C.3    87  TYR87       0.0534
     92  CG        43.1900   38.3390    8.5100 C.ar   87  TYR87      -0.0201
     93  CD1       44.4990   38.6970    8.8110 C.ar   87  TYR87      -0.0009
     94  CD2       42.9570   37.6640    7.3200 C.ar   87  TYR87      -0.0009
     95  CE1       45.5440   38.3760    7.9650 C.ar   87  TYR87       0.0417
     96  CE2       43.9890   37.3490    6.4630 C.ar   87  TYR87       0.0417
     97  CZ        45.2830   37.7070    6.7920 C.ar   87  TYR87       0.1957
     98  OH        46.3040   37.3870    5.9340 O.3    87  TYR87      -0.2866
     99  N         49.4160   43.3160    8.9700 N.3   113  ASP113     -0.1225
    100  CA        49.7480   42.6570    7.7170 C.3   113  ASP113      0.1805
    101  C         48.3840   42.1160    7.2130 C.2   113  ASP113      0.2597
    102  O         47.9550   41.0370    7.5950 O.2   113  ASP113     -0.2718
    103  CB        50.7450   41.5300    7.8350 C.3   113  ASP113      0.1424
    104  CG        51.1870   40.9810    6.4850 C.2   113  ASP113      0.3668
    105  OD1       50.4810   41.1820    5.4750 O.co2 113  ASP113     -0.2456
    106  OD2       52.2540   40.3400    6.4100 O.co2 113  ASP113     -0.2456
    107  N         47.7220   42.9010    6.3860 N.am  114  ARG114     -0.1979
    108  CA        46.4450   42.6110    5.8000 C.3   114  ARG114      0.1597
    109  C         45.2680   42.8610    6.7430 C.2   114  ARG114      0.2287
    110  O         45.3620   42.9430    7.9590 O.2   114  ARG114     -0.2864
    111  CB        46.3360   41.1940    5.2090 C.3   114  ARG114      0.0334
    112  CG        47.3390   40.9690    4.0860 C.3   114  ARG114      0.0492
    113  CD        47.1630   39.6370    3.3770 C.3   114  ARG114      0.2205
    114  NE        48.0870   39.6080    2.2340 N.pl3 114  ARG114     -0.0865
    115  CZ        47.9660   40.3710    1.1550 C.cat 114  ARG114      0.5346
    116  NH1       46.9500   41.2190    1.0270 N.pl3 114  ARG114      0.1354
    117  NH2       48.8620   40.2830    0.1850 N.pl3 114  ARG114      0.1354
    118  N         40.8500   40.8940    2.7150 N.3   118  ALA118     -0.1231
    119  CA        41.6400   40.1400    1.7450 C.3   118  ALA118      0.1694
    120  C         41.2590   38.6640    1.7280 C.2   118  ALA118      0.2591
    121  O         41.2470   38.0260    0.6720 O.2   118  ALA118     -0.2718
    122  CB        43.1170   40.2990    2.0590 C.3   118  ALA118      0.0304
    123  N         40.9280   38.1150    2.8930 N.am  119  ALA119     -0.1980
    124  CA        40.5520   36.7200    3.0200 C.3   119  ALA119      0.1597
    125  C         39.0530   36.5030    2.8900 C.2   119  ALA119      0.2287
    126  O         38.5770   35.3890    2.6700 O.2   119  ALA119     -0.2864
    127  CB        41.0040   36.1740    4.3800 C.3   119  ALA119      0.0319
    128  N         40.6420   37.7100   -2.0380 N.3   123  TYR123     -0.1241
    129  CA        41.1030   36.4090   -2.5230 C.3   123  TYR123      0.1605
    130  C         39.9900   35.5890   -3.1060 C.2   123  TYR123      0.2264
    131  O         40.1150   35.1290   -4.2600 O.2   123  TYR123     -0.2867
    132  CB        42.0560   35.6960   -1.5450 C.3   123  TYR123      0.0534
    133  CG        43.4480   36.3110   -1.7480 C.ar  123  TYR123     -0.0201
    134  CD1       43.7820   37.4980   -1.1230 C.ar  123  TYR123     -0.0009
    135  CD2       44.3730   35.7290   -2.5960 C.ar  123  TYR123     -0.0009
    136  CE1       45.0170   38.0850   -1.3280 C.ar  123  TYR123      0.0417
    137  CE2       45.6140   36.3000   -2.7990 C.ar  123  TYR123      0.0417
    138  CZ        45.9280   37.4840   -2.1660 C.ar  123  TYR123      0.1957
    139  OH        47.1600   38.0770   -2.3570 O.3   123  TYR123     -0.2866
    140  N         39.5790   34.1630   -6.9230 N.3   127  ARG127     -0.1245
    141  CA        39.3510   32.7470   -7.2170 C.3   127  ARG127      0.1563
    142  C         38.0720   32.5580   -8.0170 C.2   127  ARG127      0.2260
    143  O         37.9610   31.6190   -8.8120 O.2   127  ARG127     -0.2867
    144  CB        39.4290   31.8960   -5.9570 C.3   127  ARG127      0.0307
    145  CG        40.8280   31.8830   -5.3290 C.3   127  ARG127      0.0489
    146  CD        41.8200   31.1800   -6.2440 C.3   127  ARG127      0.2205
    147  NE        43.2050   31.3370   -5.8240 N.pl3 127  ARG127     -0.0865
    148  CZ        44.2650   30.8380   -6.4480 C.cat 127  ARG127      0.5346
    149  NH1       44.1320   30.1210   -7.5660 N.pl3 127  ARG127      0.1354
    150  NH2       45.4850   31.0510   -5.9670 N.pl3 127  ARG127      0.1354
    151  N         56.7580   31.5400   -2.4010 N.3   173  ARG173     -0.1245
    152  CA        56.5210   30.9490   -1.0950 C.3   173  ARG173      0.1563
    153  C         56.3240   29.4450   -1.1320 C.2   173  ARG173      0.2260
    154  O         56.0860   28.8470   -2.1760 O.2   173  ARG173     -0.2867
    155  CB        55.3650   31.6490   -0.3810 C.3   173  ARG173      0.0307
    156  CG        55.6750   33.1340   -0.1440 C.3   173  ARG173      0.0489
    157  CD        55.0590   33.5690    1.1580 C.3   173  ARG173      0.2205
    158  NE        55.1960   34.9810    1.4790 N.pl3 173  ARG173     -0.0865
    159  CZ        54.9490   35.4230    2.7180 C.cat 173  ARG173      0.5346
    160  NH1       54.5920   34.5450    3.6450 N.pl3 173  ARG173      0.1354
    161  NH2       55.0710   36.7020    3.0140 N.pl3 173  ARG173      0.1354
    162  N         53.7220   27.6810   -3.3580 N.3   176  GLU176     -0.1245
    163  CA        53.1610   28.6070   -4.3210 C.3   176  GLU176      0.1567
    164  C         53.6120   28.3310   -5.7510 C.2   176  GLU176      0.2260
    165  O         54.7330   27.9000   -6.0120 O.2   176  GLU176     -0.2867
    166  CB        53.4950   30.0590   -3.9290 C.3   176  GLU176      0.0388
    167  CG        52.9310   31.0720   -4.8990 C.3   176  GLU176      0.1160
    168  CD        53.1100   32.5200   -4.5310 C.2   176  GLU176      0.3649
    169  OE1       53.6990   32.8320   -3.4760 O.co2 176  GLU176     -0.2457
    170  OE2       52.6360   33.3710   -5.3310 O.co2 176  GLU176     -0.2457
@<TRIPOS>BOND
     1   143   142    2
     2   142   141    1
     3   149   148    1
     4    61    60    2
     5   141   140    1
     6   141   144    1
     7   148   150    1
     8   148   147    2
     9    64    66   ar
    10    64    63   ar
    11    60    59    1
    12   146   147    1
    13   146   145    1
    14    66    68   ar
    15   165   164    2
    16   144   145    1
    17   164   163    1
    18    59    62    1
    19    59    58    1
    20    62    63    1
    21   170   168   ar
    22    63    65   ar
    23    53    52    2
    24   167   168    1
    25   167   166    1
    26    68    69    1
    27    68    67   ar
    28     4     3    2
    29   168   169   ar
    30     9    10   ar
    31     9     7   ar
    32    58    52   am
    33   163   166    1
    34   163   162    1
    35   131   130    2
    36    52    51    1
    37    10     8   ar
    38    65    67   ar
    39     3     2    1
    40     7     6   ar
    41     8     6   ar
    42    56    54    1
    43     1     2    1
    44   130   129    1
    45     6     5    1
    46    51    54    1
    47    51    50    1
    48   137   135   ar
    49   137   138   ar
    50     2     5    1
    51   135   133   ar
    52   129   128    1
    53   129   132    1
    54   151   152    1
    55   139   138    1
    56    54    55    1
    57   154   153    2
    58   138   136   ar
    59   133   132    1
    60   133   134   ar
    61    45    44    2
    62   136   134   ar
    63   153   152    1
    64   152   155    1
    65    55    57    1
    66    44    43    1
    67   155   156    1
    68    48    46    1
    69   156   157    1
    70    77    76    2
    71   117   115    1
    72    75    76    1
    73    75    74    1
    74    76    78   am
    75    43    46    1
    76    43    42    1
    77   121   120    2
    78    46    47    1
    79   116   115    1
    80   115   114    2
    81   157   158    1
    82   158   159    2
    83   120   119    1
    84   120   123   am
    85   119   122    1
    86   119   118    1
    87    74    71    1
    88    47    49    1
    89   114   113    1
    90    70    71    1
    91   126   125    2
    92   159   161    1
    93   159   160    1
    94    71    72    1
    95   125   124    1
    96   123   124    1
    97   124   127    1
    98    86    85    1
    99   113   112    1
   100    84    85    1
   101    84    83    1
   102   112   111    1
   103    72    73    2
   104    19    17   ar
   105    83    80    1
   106    27    26    1
   107   111   108    1
   108    17    18   ar
   109    17    16    1
   110   105   104   ar
   111    40    41   ar
   112    40    38   ar
   113   108   107    1
   114   108   109    1
   115    41    39   ar
   116    38    35   ar
   117    80    79    1
   118    80    81    1
   119    26    25    1
   120    98    97    1
   121    39    37   ar
   122   107   101   am
   123    35    37   ar
   124    35    33   ar
   125   106   104   ar
   126    96    97   ar
   127    96    94   ar
   128   104   103    1
   129    37    36   ar
   130    81    82    2
   131    32    33    1
   132    32    29    1
   133    16    15    1
   134    31    30    2
   135   109   110    2
   136    97    95   ar
   137    33    34   ar
   138    36    34   ar
   139   101   102    2
   140   101   100    1
   141    25    24    1
   142    94    92   ar
   143    30    29    1
   144    15    12    1
   145   100   103    1
   146   100    99    1
   147    29    28    1
   148    95    93   ar
   149    24    21    1
   150    92    93   ar
   151    92    91    1
   152    21    22    1
   153    21    20    1
   154    23    22    2
   155    12    11    1
   156    12    13    1
   157    91    88    1
   158    13    14    2
   159    88    87    1
   160    88    89    1
   161    89    90    2
