@<TRIPOS>MOLECULE
tmp/1e2sA01.pdb
 119 111 0 0 0
SMALL
GASTEIGER

@<TRIPOS>ATOM
      1  N         18.6270   36.8940  -15.5530 N.3    50  LEU50      -0.1231
      2  CA        18.7860   36.4340  -16.9250 C.3    50  LEU50       0.1693
      3  C         19.3970   37.5920  -17.7570 C.2    50  LEU50       0.2591
      4  O         19.2220   38.7800  -17.3800 O.2    50  LEU50      -0.2718
      5  CB        17.4370   36.0560  -17.5870 C.3    50  LEU50       0.0284
      6  CG        16.9040   34.6530  -17.3750 C.3    50  LEU50       0.0019
      7  CD1       15.8390   34.2420  -18.3340 C.3    50  LEU50       0.0001
      8  CD2       17.9960   33.6030  -17.4060 C.3    50  LEU50       0.0001
      9  N         20.1240   37.2860  -18.8200 N.am   51  ALA51      -0.1980
     10  CA        20.8780   38.2760  -19.6140 C.3    51  ALA51       0.1597
     11  C         20.0700   39.4190  -20.2170 C.2    51  ALA51       0.2287
     12  O         20.2940   40.5840  -19.8390 O.2    51  ALA51      -0.2864
     13  CB        21.6710   37.5640  -20.7070 C.3    51  ALA51       0.0319
     14  N         14.7600   35.0970  -22.5170 N.3    73  VAL73      -0.1245
     15  CA        15.7360   35.9410  -23.1960 C.3    73  VAL73       0.1561
     16  C         15.3780   35.9770  -24.6990 C.2    73  VAL73       0.2260
     17  O         14.5430   35.1800  -25.1080 O.2    73  VAL73      -0.2867
     18  CB        17.1450   35.4260  -23.0990 C.3    73  VAL73       0.0252
     19  CG1       17.6650   35.5090  -21.6640 C.3    73  VAL73       0.0019
     20  CG2       17.2380   34.0290  -23.6870 C.3    73  VAL73       0.0019
     21  N         28.7980   41.3900  -25.8990 N.3   105  LYS105     -0.1301
     22  CA        27.4560   40.8090  -26.0570 C.3   105  LYS105      0.1247
     23  C         26.3630   41.7930  -26.0230 C.3   105  LYS105      0.2009
     24  O         26.3700   42.4750  -24.9940 O.3   105  LYS105     -0.2188
     25  CB        27.2280   39.7520  -24.9370 C.3   105  LYS105      0.0218
     26  CG        25.8150   39.1530  -24.7800 C.3   105  LYS105      0.0031
     27  CD        25.9550   37.8120  -24.0070 C.3   105  LYS105      0.0205
     28  CE        24.6530   37.4520  -23.2630 C.3   105  LYS105      0.1093
     29  NZ        24.8030   36.0860  -22.6510 N.3   105  LYS105     -0.1314
     30  N         22.4630   41.2550  -26.8450 N.3   107  HIS107     -0.1241
     31  CA        21.3170   40.5210  -26.4240 C.3   107  HIS107      0.1621
     32  C         20.1150   41.4150  -26.1800 C.2   107  HIS107      0.2264
     33  O         19.2280   40.9480  -25.4520 O.2   107  HIS107     -0.2867
     34  CB        21.5530   39.6820  -25.1230 C.3   107  HIS107      0.0745
     35  CG        20.8990   38.3310  -25.2400 C.ar  107  HIS107      0.0817
     36  ND1       21.2340   37.2450  -24.4710 N.ar  107  HIS107     -0.2268
     37  CD2       19.8850   37.8830  -26.0490 C.ar  107  HIS107      0.1154
     38  CE1       20.4780   36.2110  -24.7670 C.ar  107  HIS107      0.1986
     39  NE2       19.6660   36.5680  -25.7520 N.ar  107  HIS107     -0.2212
     40  N         23.9230   35.7560  -27.0810 N.3   132  SER132     -0.1217
     41  CA        25.0500   35.0710  -26.4210 C.3   132  SER132      0.1889
     42  C         25.8450   34.2590  -27.4110 C.2   132  SER132      0.2288
     43  O         25.2750   33.6500  -28.3640 O.2   132  SER132     -0.2866
     44  CB        24.8150   34.1610  -25.1260 C.3   132  SER132      0.2089
     45  OG        23.4430   34.0220  -25.2060 O.3   132  SER132     -0.2183
     46  N         26.6020   31.2770  -27.3860 N.3   134  ASP134     -0.1225
     47  CA        26.1740   29.8740  -27.4590 C.3   134  ASP134      0.1805
     48  C         24.8760   29.8370  -28.2430 C.2   134  ASP134      0.2597
     49  O         24.4250   28.7290  -28.5010 O.2   134  ASP134     -0.2718
     50  CB        26.0500   29.1930  -26.0950 C.3   134  ASP134      0.1424
     51  CG        24.8460   29.8180  -25.3840 C.2   134  ASP134      0.3668
     52  OD1       24.6460   31.0650  -25.4480 O.co2 134  ASP134     -0.2456
     53  OD2       24.0190   29.2030  -24.7150 O.co2 134  ASP134     -0.2456
     54  N         24.3570   30.9980  -28.7200 N.am  135  GLN135     -0.1979
     55  CA        23.1540   30.8460  -29.5140 C.3   135  GLN135      0.1601
     56  C         23.4420   30.5500  -30.9820 C.2   135  GLN135      0.2287
     57  O         23.0140   31.1910  -31.9280 O.2   135  GLN135     -0.2864
     58  CB        22.1890   32.0030  -29.2730 C.3   135  GLN135      0.0394
     59  CG        21.7160   32.0770  -27.8070 C.3   135  GLN135      0.0908
     60  CD        20.8660   33.2940  -27.5650 C.2   135  GLN135      0.2608
     61  OE1       19.6610   33.2140  -27.3370 O.2   135  GLN135     -0.2717
     62  NE2       21.3950   34.5270  -27.5360 N.am  135  GLN135     -0.0878
     63  N         30.3330   32.9450  -19.6940 N.3   211  HIS211     -0.1241
     64  CA        29.2250   32.2130  -20.2470 C.3   211  HIS211      0.1621
     65  C         29.6930   30.9550  -20.9610 C.2   211  HIS211      0.2264
     66  O         30.7450   30.8570  -21.5520 O.2   211  HIS211     -0.2867
     67  CB        28.3960   33.0940  -21.1660 C.3   211  HIS211      0.0745
     68  CG        26.9870   32.6670  -21.3420 C.ar  211  HIS211      0.0817
     69  ND1       26.6400   31.5750  -22.0830 N.ar  211  HIS211     -0.2268
     70  CD2       25.8150   33.2240  -20.8770 C.ar  211  HIS211      0.1154
     71  CE1       25.2850   31.4230  -22.0890 C.ar  211  HIS211      0.1986
     72  NE2       24.7750   32.4280  -21.3560 N.ar  211  HIS211     -0.2212
     73  N         25.7540   29.8490  -13.6150 N.3   267  GLU267     -0.1245
     74  CA        24.9300   28.7440  -14.1750 C.3   267  GLU267      0.1567
     75  C         25.4840   27.4610  -13.6490 C.2   267  GLU267      0.2260
     76  O         26.2910   26.8080  -14.3160 O.2   267  GLU267     -0.2867
     77  CB        24.9590   28.7670  -15.7090 C.3   267  GLU267      0.0388
     78  CG        23.8460   27.9090  -16.3240 C.3   267  GLU267      0.1160
     79  CD        23.6370   28.2560  -17.8130 C.2   267  GLU267      0.3649
     80  OE1       24.5670   27.9950  -18.5790 O.co2 267  GLU267     -0.2457
     81  OE2       22.6050   28.8150  -18.2090 O.co2 267  GLU267     -0.2457
     82  N         24.3000   24.5310  -13.4200 N.3   269  MET269     -0.1230
     83  CA        23.9840   23.4050  -14.3180 C.3   269  MET269      0.1702
     84  C         25.2000   23.1330  -15.2200 C.2   269  MET269      0.2592
     85  O         25.3860   21.9750  -15.6010 O.2   269  MET269     -0.2718
     86  CB        22.8230   24.0200  -15.0600 C.3   269  MET269      0.0401
     87  CG        22.2110   23.3330  -16.1810 C.3   269  MET269      0.0596
     88  SD        22.8140   24.0040  -17.7440 S.3   269  MET269     -0.1393
     89  CE        21.1450   24.5050  -18.2570 C.3   269  MET269      0.0692
     90  N         26.1820   24.0250  -15.4450 N.am  270  ARG270     -0.1980
     91  CA        27.4180   23.6560  -16.1310 C.3   270  ARG270      0.1597
     92  C         28.4280   23.0360  -15.1900 C.2   270  ARG270      0.2287
     93  O         29.5730   22.7050  -15.5750 O.2   270  ARG270     -0.2864
     94  CB        28.0750   24.8550  -16.7770 C.3   270  ARG270      0.0334
     95  CG        27.0240   25.6400  -17.6050 C.3   270  ARG270      0.0492
     96  CD        26.7930   24.7900  -18.9060 C.3   270  ARG270      0.2205
     97  NE        25.7150   25.6200  -19.5790 N.pl3 270  ARG270     -0.0865
     98  CZ        25.0470   25.2040  -20.6550 C.cat 270  ARG270      0.5346
     99  NH1       25.3680   24.0580  -21.2070 N.pl3 270  ARG270      0.1354
    100  NH2       24.1110   25.9510  -21.2280 N.pl3 270  ARG270      0.1354
    101  N         21.8470   31.5650  -11.0800 N.3   284  LYS284     -0.1245
    102  CA        21.1650   32.0830  -12.2860 C.3   284  LYS284      0.1561
    103  C         19.7580   31.5130  -12.3960 C.2   284  LYS284      0.2260
    104  O         19.5250   30.2970  -12.2800 O.2   284  LYS284     -0.2867
    105  CB        21.9640   31.5130  -13.4990 C.3   284  LYS284      0.0271
    106  CG        21.4800   32.0280  -14.8750 C.3   284  LYS284      0.0035
    107  CD        22.3860   31.4340  -15.9950 C.3   284  LYS284      0.0206
    108  CE        21.7600   31.9790  -17.3580 C.3   284  LYS284      0.1093
    109  NZ        22.7590   31.6580  -18.4540 N.3   284  LYS284     -0.1314
    110  N         18.6580   26.5570  -14.7890 N.3   387  HIS387     -0.1241
    111  CA        19.9980   27.0980  -14.7440 C.3   387  HIS387      0.1621
    112  C         20.7240   26.8430  -13.4250 C.2   387  HIS387      0.2264
    113  O         21.9780   26.8480  -13.4410 O.2   387  HIS387     -0.2867
    114  CB        20.0400   28.6240  -14.9500 C.3   387  HIS387      0.0745
    115  CG        19.3460   28.8780  -16.2530 C.ar  387  HIS387      0.0817
    116  ND1       19.9860   28.6890  -17.4490 N.ar  387  HIS387     -0.2268
    117  CD2       18.0680   29.2940  -16.5040 C.ar  387  HIS387      0.1154
    118  CE1       19.0900   28.9580  -18.3910 C.ar  387  HIS387      0.1986
    119  NE2       17.9750   29.3640  -17.8560 N.ar  387  HIS387     -0.2212
@<TRIPOS>BOND
     1    57    56    2
     2    56    55    1
     3    55    58    1
     4    55    54    1
     5    58    59    1
     6    54    48   am
     7    49    48    2
     8    43    42    2
     9    48    47    1
    10    59    60    1
    11    60    62   am
    12    60    61    2
    13    47    46    1
    14    47    50    1
    15    42    41    1
    16    40    41    1
    17    30    31    1
    18    31    32    1
    19    31    34    1
    20    41    44    1
    21    32    33    2
    22    50    51    1
    23    22    23    1
    24    22    21    1
    25    22    25    1
    26    37    39   ar
    27    37    35   ar
    28    23    24    1
    29    39    38   ar
    30    52    51   ar
    31    51    53   ar
    32    35    34    1
    33    35    36   ar
    34    45    44    1
    35    17    16    2
    36    25    26    1
    37    26    27    1
    38    38    36   ar
    39    16    15    1
    40    27    28    1
    41    20    18    1
    42    28    29    1
    43    15    18    1
    44    15    14    1
    45    18    19    1
    46    71    69   ar
    47    71    72   ar
    48    69    68   ar
    49    66    65    2
    50    72    70   ar
    51    68    67    1
    52    68    70   ar
    53   100    98    1
    54    99    98    1
    55    67    64    1
    56    65    64    1
    57    13    10    1
    58    98    97    2
    59    64    63    1
    60    11    12    2
    61    11    10    1
    62    10     9    1
    63    97    96    1
    64    96    95    1
    65     9     3   am
    66    80    79   ar
    67   109   108    1
    68   118   119   ar
    69   118   116   ar
    70     7     6    1
    71    89    88    1
    72    81    79   ar
    73   119   117   ar
    74    79    78    1
    75     3     4    2
    76     3     2    1
    77    88    87    1
    78    95    94    1
    79     5     6    1
    80     5     2    1
    81   116   115   ar
    82     8     6    1
    83   108   107    1
    84     2     1    1
    85    94    91    1
    86   117   115   ar
    87    78    77    1
    88   115   114    1
    89    87    86    1
    90    91    90    1
    91    91    92    1
    92   107   106    1
    93    77    74    1
    94    85    84    2
    95    93    92    2
    96    90    84   am
    97    84    83    1
    98    86    83    1
    99   114   111    1
   100   106   105    1
   101   110   111    1
   102   111   112    1
   103    83    82    1
   104    76    75    2
   105    74    75    1
   106    74    73    1
   107   105   102    1
   108   113   112    2
   109   103   102    1
   110   103   104    2
   111   102   101    1
