@<TRIPOS>MOLECULE
tmp/1e34A00.pdb
 108 105 0 0 0
SMALL
GASTEIGER

@<TRIPOS>ATOM
      1  N         -0.7970   25.5270   32.1270 N.3    29  THR29      -0.1203
      2  CA        -1.8130   24.5340   32.4470 C.3    29  THR29       0.1994
      3  C         -2.4520   24.8350   33.8040 C.2    29  THR29       0.2618
      4  O         -3.6370   24.5010   33.9840 O.2    29  THR29      -0.2717
      5  CB        -1.2510   23.1010   32.4110 C.3    29  THR29       0.1784
      6  OG1       -2.3230   22.1650   32.5790 O.3    29  THR29      -0.2211
      7  CG2       -0.2270   22.8740   33.5140 C.3    29  THR29       0.0376
      8  N         -1.7420   25.4870   34.7110 N.am   30  CYS30      -0.1969
      9  CA        -2.2940   25.7170   36.0440 C.3    30  CYS30       0.1712
     10  C         -1.6570   26.9060   36.7290 C.2    30  CYS30       0.2296
     11  O         -0.5840   27.3650   36.3100 O.2    30  CYS30      -0.2864
     12  CB        -2.0030   24.4760   36.9420 C.3    30  CYS30       0.0983
     13  SG        -3.2370   23.1510   36.7950 S.3    30  CYS30      -0.0798
     14  N         -3.8280   17.7090   41.2800 N.3    45  HIS45      -0.1226
     15  CA        -4.3840   17.2940   39.9840 C.3    45  HIS45       0.1752
     16  C         -3.6520   17.9650   38.8300 C.2    45  HIS45       0.2596
     17  O         -3.6810   17.4490   37.7060 O.2    45  HIS45      -0.2718
     18  CB        -5.8470   17.7690   40.0050 C.3    45  HIS45       0.0759
     19  CG        -6.7840   17.1300   39.0460 C.ar   45  HIS45       0.0818
     20  ND1       -7.8400   17.7780   38.4440 N.ar   45  HIS45      -0.2268
     21  CD2       -6.8300   15.8680   38.5730 C.ar   45  HIS45       0.1154
     22  CE1       -8.4850   16.9420   37.6310 C.ar   45  HIS45       0.1986
     23  NE2       -7.8810   15.7710   37.6870 N.ar   45  HIS45      -0.2212
     24  N         -2.9650   19.0830   39.0580 N.am   46  CYS46      -0.1970
     25  CA        -2.2280   19.7520   37.9960 C.3    46  CYS46       0.1712
     26  C         -0.9870   18.9630   37.5820 C.2    46  CYS46       0.2296
     27  O         -0.4600   19.1870   36.4970 O.2    46  CYS46      -0.2864
     28  CB        -1.7660   21.1460   38.4350 C.3    46  CYS46       0.0983
     29  SG        -3.1830   22.2670   38.6350 S.3    46  CYS46      -0.0798
     30  N         -0.7130   15.5420   37.6970 N.3    48  ASP48      -0.1225
     31  CA        -1.0300   14.1190   37.5530 C.3    48  ASP48       0.1805
     32  C         -0.4140   13.5710   36.2680 C.2    48  ASP48       0.2597
     33  O          0.0200   12.4230   36.2190 O.2    48  ASP48      -0.2718
     34  CB        -2.5450   13.9060   37.5190 C.3    48  ASP48       0.1424
     35  CG        -3.2020   13.6780   38.8700 C.2    48  ASP48       0.3668
     36  OD1       -2.5080   13.2080   39.7790 O.co2  48  ASP48      -0.2456
     37  OD2       -4.4220   13.8970   39.0450 O.co2  48  ASP48      -0.2456
     38  N         -0.3700   14.3890   35.2100 N.am   49  ARG49      -0.1979
     39  CA         0.2180   13.8920   33.9640 C.3    49  ARG49       0.1597
     40  C          1.7390   13.8730   34.0350 C.2    49  ARG49       0.2287
     41  O          2.3940   14.7880   34.5680 O.2    49  ARG49      -0.2864
     42  CB        -0.2810   14.7380   32.7870 C.3    49  ARG49       0.0334
     43  CG        -1.7640   14.5150   32.4910 C.3    49  ARG49       0.0492
     44  CD        -2.3130   15.6980   31.6860 C.3    49  ARG49       0.2205
     45  NE        -2.4280   16.8670   32.5330 N.pl3  49  ARG49      -0.0865
     46  CZ        -2.2860   18.1500   32.2800 C.cat  49  ARG49       0.5346
     47  NH1       -1.9730   18.6450   31.0980 N.pl3  49  ARG49       0.1354
     48  NH2       -2.4410   19.0210   33.2890 N.pl3  49  ARG49       0.1354
     49  N        -13.7370   30.5220   39.3670 N.3   183  GLY183     -0.1210
     50  CA       -12.4900   29.9810   38.7440 C.3   183  GLY183      0.1956
     51  C        -12.9930   29.2110   37.5160 C.2   183  GLY183      0.2612
     52  O        -14.2030   28.9860   37.3260 O.2   183  GLY183     -0.2717
     53  N        -12.0590   28.7510   36.6990 N.am  184  CYS184     -0.1956
     54  CA       -12.3770   27.9890   35.4920 C.3   184  CYS184      0.1843
     55  C        -11.1580   27.1790   35.1070 C.2   184  CYS184      0.2625
     56  O        -10.1000   27.3180   35.7590 O.2   184  CYS184     -0.2714
     57  CB       -12.9030   28.9040   34.3860 C.3   184  CYS184      0.0997
     58  SG       -13.9580   28.0760   33.1550 S.3   184  CYS184     -0.0797
     59  N        -11.2390   26.3190   34.0880 N.am  185  GLN185     -0.1963
     60  CA       -10.0830   25.4530   33.7880 C.3   185  GLN185      0.1733
     61  C         -8.8180   26.2450   33.5750 C.2   185  GLN185      0.2616
     62  O         -8.8130   27.2230   32.8500 O.2   185  GLN185     -0.2715
     63  CB       -10.3810   24.5380   32.5860 C.3   185  GLN185      0.0408
     64  CG       -11.3130   23.3760   32.9450 C.3   185  GLN185      0.0908
     65  CD       -12.7380   23.7730   33.2500 C.2   185  GLN185      0.2608
     66  OE1      -13.4680   23.1700   34.0680 O.2   185  GLN185     -0.2717
     67  NE2      -13.2160   24.8300   32.6100 N.am  185  GLN185     -0.0878
     68  N         -7.6830   25.8030   34.1600 N.am  186  GLY186     -0.1955
     69  CA        -6.4530   26.5900   33.9940 C.3   186  GLY186      0.1869
     70  C         -6.1580   27.4600   35.2020 C.2   186  GLY186      0.2309
     71  O         -5.0430   28.0030   35.3200 O.2   186  GLY186     -0.2863
     72  N         -6.8510   26.1530   38.2210 N.3   188  SER188     -0.1217
     73  CA        -6.4690   25.1970   39.2490 C.3   188  SER188      0.1889
     74  C         -5.0120   25.3190   39.7070 C.2   188  SER188      0.2288
     75  O         -4.1600   25.6180   38.8980 O.2   188  SER188     -0.2866
     76  CB        -6.5190   23.7320   38.7700 C.3   188  SER188      0.2089
     77  OG        -7.9710   23.4860   38.6340 O.3   188  SER188     -0.2183
     78  N         -6.8100   26.5310   44.2370 N.3   206  THR206     -0.1203
     79  CA        -7.9880   26.2350   43.3880 C.3   206  THR206      0.1994
     80  C         -8.0510   24.7590   42.9770 C.2   206  THR206      0.2619
     81  O         -7.0440   24.2260   42.5250 O.2   206  THR206     -0.2717
     82  CB        -7.9280   27.1380   42.1450 C.3   206  THR206      0.1784
     83  OG1       -7.8340   28.5030   42.5810 O.3   206  THR206     -0.2211
     84  CG2       -9.2190   26.9500   41.3380 C.3   206  THR206      0.0376
     85  N         -9.2040   24.1070   43.2090 N.am  207  SER207     -0.1937
     86  CA        -9.2630   22.6670   42.9940 C.3   207  SER207      0.2055
     87  C        -10.2980   22.2500   41.9650 C.2   207  SER207      0.2643
     88  O         -9.9600   21.5020   41.0340 O.2   207  SER207     -0.2714
     89  CB        -9.5970   21.9520   44.3340 C.3   207  SER207      0.2130
     90  OG        -9.5580   20.5210   44.1220 O.3   207  SER207     -0.2179
     91  N        -11.5710   22.6750   42.1380 N.am  208  PHE208     -0.1959
     92  CA       -12.5640   22.2440   41.1570 C.3   208  PHE208      0.1771
     93  C        -13.7680   23.1700   41.0570 C.2   208  PHE208      0.2619
     94  O        -14.1040   23.9850   41.8940 O.2   208  PHE208     -0.2715
     95  CB       -13.0570   20.8220   41.4320 C.3   208  PHE208      0.0574
     96  CG       -13.7180   20.5290   42.7490 C.ar  208  PHE208     -0.0200
     97  CD1      -15.0930   20.6530   42.9000 C.ar  208  PHE208     -0.0042
     98  CD2      -12.9860   20.0730   43.8270 C.ar  208  PHE208     -0.0042
     99  CE1      -15.7240   20.3750   44.0980 C.ar  208  PHE208     -0.0003
    100  CE2      -13.6010   19.7920   45.0330 C.ar  208  PHE208     -0.0003
    101  CZ       -14.9720   19.9350   45.1790 C.ar  208  PHE208     -0.0000
    102  N        -14.4840   23.0060   39.9540 N.am  209  VAL209     -0.1977
    103  CA       -15.7290   23.6830   39.6840 C.3   209  VAL209      0.1596
    104  C        -16.6900   22.5800   39.2180 C.2   209  VAL209      0.2287
    105  O        -16.3430   21.3940   39.0980 O.2   209  VAL209     -0.2864
    106  CB       -15.6860   24.7690   38.6050 C.3   209  VAL209      0.0276
    107  CG1      -14.8270   25.9910   38.9520 C.3   209  VAL209      0.0022
    108  CG2      -15.1910   24.1100   37.3030 C.3   209  VAL209      0.0022
@<TRIPOS>BOND
     1    47    46    1
     2    44    43    1
     3    44    45    1
     4     1     2    1
     5    46    45    2
     6    46    48    1
     7     5     2    1
     8     5     6    1
     9     5     7    1
    10     2     3    1
    11    43    42    1
    12    63    64    1
    13    63    60    1
    14    67    65   am
    15    42    39    1
    16    62    61    2
    17    64    65    1
    18    58    57    1
    19    65    66    2
    20    61    60    1
    21    61    68   am
    22    60    59    1
    23     3     4    2
    24     3     8   am
    25    39    40    1
    26    39    38    1
    27    69    68    1
    28    69    70    1
    29    40    41    2
    30    59    55   am
    31    57    54    1
    32     8     9    1
    33    55    54    1
    34    55    56    2
    35    70    71    2
    36    38    32   am
    37    54    53    1
    38     9    10    1
    39     9    12    1
    40    33    32    2
    41    32    31    1
    42    11    10    2
    43    27    26    2
    44    53    51   am
    45    13    12    1
    46    13    29    1
    47   108   106    1
    48    52    51    2
    49    51    50    1
    50    34    31    1
    51    34    35    1
    52    31    30    1
    53    26    25    1
    54    22    23   ar
    55    22    20   ar
    56    23    21   ar
    57    17    16    2
    58    25    28    1
    59    25    24    1
    60    72    73    1
    61    28    29    1
    62    20    19   ar
    63    21    19   ar
    64   106   107    1
    65   106   103    1
    66    77    76    1
    67    50    49    1
    68    76    73    1
    69    16    24   am
    70    16    15    1
    71    35    37   ar
    72    35    36   ar
    73    75    74    2
    74    19    18    1
    75   105   104    2
    76   104   103    1
    77    73    74    1
    78   103   102    1
    79   102    93   am
    80    15    18    1
    81    15    14    1
    82    88    87    2
    83    93    92    1
    84    93    94    2
    85    92    95    1
    86    92    91    1
    87    84    82    1
    88    95    96    1
    89    87    91   am
    90    87    86    1
    91    82    83    1
    92    82    79    1
    93    81    80    2
    94    96    97   ar
    95    96    98   ar
    96    97    99   ar
    97    80    85   am
    98    80    79    1
    99    86    85    1
   100    86    89    1
   101    79    78    1
   102    98   100   ar
   103    99   101   ar
   104    90    89    1
   105   100   101   ar
