@<TRIPOS>MOLECULE
tmp/1e36A00.pdb
 108 105 0 0 0
SMALL
GASTEIGER

@<TRIPOS>ATOM
      1  N         -0.7590   25.5010   32.0700 N.3    29  THR29      -0.1203
      2  CA        -1.7450   24.5100   32.4560 C.3    29  THR29       0.1994
      3  C         -2.3960   24.8250   33.8000 C.2    29  THR29       0.2618
      4  O         -3.5220   24.3490   34.0340 O.2    29  THR29      -0.2717
      5  CB        -1.1760   23.0820   32.4520 C.3    29  THR29       0.1784
      6  OG1       -2.2530   22.1430   32.6510 O.3    29  THR29      -0.2211
      7  CG2       -0.1350   22.8440   33.5420 C.3    29  THR29       0.0376
      8  N         -1.7140   25.5050   34.7090 N.am   30  CYS30      -0.1969
      9  CA        -2.2590   25.7120   36.0450 C.3    30  CYS30       0.1712
     10  C         -1.5960   26.9030   36.7170 C.2    30  CYS30       0.2296
     11  O         -0.5710   27.3830   36.2230 O.2    30  CYS30      -0.2864
     12  CB        -1.9770   24.4970   36.9680 C.3    30  CYS30       0.0983
     13  SG        -3.1760   23.1310   36.8420 S.3    30  CYS30      -0.0798
     14  N         -3.6680   17.6970   41.3350 N.3    45  HIS45      -0.1226
     15  CA        -4.2200   17.3080   40.0350 C.3    45  HIS45       0.1752
     16  C         -3.5350   17.9810   38.8640 C.2    45  HIS45       0.2596
     17  O         -3.5480   17.4490   37.7510 O.2    45  HIS45      -0.2718
     18  CB        -5.7140   17.6550   40.0740 C.3    45  HIS45       0.0759
     19  CG        -6.5470   17.0600   38.9890 C.ar   45  HIS45       0.0818
     20  ND1       -7.6750   17.6900   38.5110 N.ar   45  HIS45      -0.2268
     21  CD2       -6.4090   15.9260   38.2700 C.ar   45  HIS45       0.1154
     22  CE1       -8.2070   16.9510   37.5410 C.ar   45  HIS45       0.1986
     23  NE2       -7.4640   15.8720   37.3840 N.ar   45  HIS45      -0.2212
     24  N         -2.8540   19.1050   39.0890 N.am   46  CYS46      -0.1970
     25  CA        -2.1450   19.7950   38.0230 C.3    46  CYS46       0.1712
     26  C         -0.9140   19.0090   37.5660 C.2    46  CYS46       0.2296
     27  O         -0.4170   19.2560   36.4700 O.2    46  CYS46      -0.2864
     28  CB        -1.6370   21.1630   38.5340 C.3    46  CYS46       0.0983
     29  SG        -3.0480   22.3150   38.6910 S.3    46  CYS46      -0.0798
     30  N         -0.7830   15.5580   37.6090 N.3    48  ASP48      -0.1225
     31  CA        -1.1640   14.1570   37.4000 C.3    48  ASP48       0.1805
     32  C         -0.5830   13.6520   36.0810 C.2    48  ASP48       0.2597
     33  O         -0.1350   12.5000   36.0100 O.2    48  ASP48      -0.2718
     34  CB        -2.6840   13.9790   37.4380 C.3    48  ASP48       0.1424
     35  CG        -3.2680   13.6930   38.8140 C.2    48  ASP48       0.3668
     36  OD1       -2.5440   13.1830   39.6900 O.co2  48  ASP48      -0.2456
     37  OD2       -4.4960   13.9110   39.0160 O.co2  48  ASP48      -0.2456
     38  N         -0.5090   14.5090   35.0610 N.am   49  ARG49      -0.1979
     39  CA         0.0670   14.0320   33.7880 C.3    49  ARG49       0.1597
     40  C          1.5850   14.0050   33.9000 C.2    49  ARG49       0.2287
     41  O          2.1930   14.9060   34.4940 O.2    49  ARG49      -0.2864
     42  CB        -0.4080   14.9070   32.6390 C.3    49  ARG49       0.0334
     43  CG        -1.9180   15.0940   32.5450 C.3    49  ARG49       0.0492
     44  CD        -2.2520   16.4020   31.8280 C.3    49  ARG49       0.2205
     45  NE        -1.8930   17.5690   32.5980 N.pl3  49  ARG49      -0.0865
     46  CZ        -1.7310   18.8480   32.3370 C.cat  49  ARG49       0.5346
     47  NH1       -1.9100   19.2640   31.0930 N.pl3  49  ARG49       0.1354
     48  NH2       -1.3760   19.6610   33.3340 N.pl3  49  ARG49       0.1354
     49  N        -13.7140   30.4330   39.3030 N.3   183  GLY183     -0.1210
     50  CA       -12.4600   29.9200   38.7100 C.3   183  GLY183      0.1956
     51  C        -12.9180   29.1030   37.4810 C.2   183  GLY183      0.2612
     52  O        -14.1120   28.8600   37.3260 O.2   183  GLY183     -0.2717
     53  N        -11.9640   28.7040   36.6620 N.am  184  CYS184     -0.1956
     54  CA       -12.2800   27.8760   35.4820 C.3   184  CYS184      0.1843
     55  C        -11.0420   27.0780   35.1170 C.2   184  CYS184      0.2625
     56  O        -10.0080   27.2340   35.7880 O.2   184  CYS184     -0.2714
     57  CB       -12.8300   28.7330   34.3550 C.3   184  CYS184      0.0997
     58  SG       -13.9120   27.9050   33.1400 S.3   184  CYS184     -0.0797
     59  N        -11.1580   26.1920   34.1300 N.am  185  GLN185     -0.1963
     60  CA        -9.9950   25.3460   33.8280 C.3   185  GLN185      0.1733
     61  C         -8.7530   26.1770   33.5440 C.2   185  GLN185      0.2616
     62  O         -8.7970   27.1400   32.7720 O.2   185  GLN185     -0.2715
     63  CB       -10.2860   24.4050   32.6590 C.3   185  GLN185      0.0408
     64  CG       -11.2280   23.2590   33.0300 C.3   185  GLN185      0.0908
     65  CD       -12.6550   23.7170   33.2370 C.2   185  GLN185      0.2608
     66  OE1      -13.1010   24.6770   32.5850 O.2   185  GLN185     -0.2717
     67  NE2      -13.4410   23.0900   34.1330 N.am  185  GLN185     -0.0878
     68  N         -7.6480   25.7510   34.1740 N.am  186  GLY186     -0.1955
     69  CA        -6.4080   26.5180   34.0340 C.3   186  GLY186      0.1869
     70  C         -6.1330   27.4170   35.2310 C.2   186  GLY186      0.2309
     71  O         -5.0120   27.9370   35.3210 O.2   186  GLY186     -0.2863
     72  N         -6.7700   26.1910   38.2570 N.3   188  SER188     -0.1217
     73  CA        -6.3970   25.1950   39.2650 C.3   188  SER188      0.1889
     74  C         -4.9390   25.3350   39.7180 C.2   188  SER188      0.2288
     75  O         -4.0710   25.6330   38.9050 O.2   188  SER188     -0.2866
     76  CB        -6.4190   23.7410   38.7600 C.3   188  SER188      0.2089
     77  OG        -7.8920   23.4910   38.7540 O.3   188  SER188     -0.2183
     78  N         -6.7580   26.5640   44.2790 N.3   206  THR206     -0.1203
     79  CA        -7.8890   26.2100   43.3990 C.3   206  THR206      0.1994
     80  C         -7.9230   24.7430   43.0310 C.2   206  THR206      0.2619
     81  O         -6.9280   24.2490   42.5190 O.2   206  THR206     -0.2717
     82  CB        -7.8220   27.1010   42.1510 C.3   206  THR206      0.1784
     83  OG1       -7.7870   28.4610   42.6260 O.3   206  THR206     -0.2211
     84  CG2       -9.0970   26.9360   41.3180 C.3   206  THR206      0.0376
     85  N         -9.0790   24.0860   43.2490 N.am  207  SER207     -0.1937
     86  CA        -9.1450   22.6480   43.0010 C.3   207  SER207      0.2055
     87  C        -10.1810   22.2240   41.9820 C.2   207  SER207      0.2643
     88  O         -9.8470   21.4790   41.0420 O.2   207  SER207     -0.2714
     89  CB        -9.4240   21.9350   44.3480 C.3   207  SER207      0.2130
     90  OG        -9.4100   20.4970   44.1780 O.3   207  SER207     -0.2179
     91  N        -11.4440   22.6360   42.1370 N.am  208  PHE208     -0.1959
     92  CA       -12.4270   22.2080   41.1480 C.3   208  PHE208      0.1771
     93  C        -13.6610   23.0800   41.0360 C.2   208  PHE208      0.2619
     94  O        -13.9380   23.9120   41.8740 O.2   208  PHE208     -0.2715
     95  CB       -12.8430   20.7770   41.4550 C.3   208  PHE208      0.0574
     96  CG       -13.5100   20.4400   42.7490 C.ar  208  PHE208     -0.0200
     97  CD1      -14.8790   20.5250   42.8740 C.ar  208  PHE208     -0.0042
     98  CD2      -12.7530   20.0140   43.8390 C.ar  208  PHE208     -0.0042
     99  CE1      -15.5310   20.1900   44.0510 C.ar  208  PHE208     -0.0003
    100  CE2      -13.3890   19.6970   45.0350 C.ar  208  PHE208     -0.0003
    101  CZ       -14.7570   19.7680   45.1290 C.ar  208  PHE208     -0.0000
    102  N        -14.3780   22.8880   39.9300 N.am  209  VAL209     -0.1977
    103  CA       -15.6490   23.5360   39.6710 C.3   209  VAL209      0.1596
    104  C        -16.5980   22.4070   39.2270 C.2   209  VAL209      0.2287
    105  O        -16.1930   21.2550   39.0410 O.2   209  VAL209     -0.2864
    106  CB       -15.6150   24.6140   38.5820 C.3   209  VAL209      0.0276
    107  CG1      -14.7560   25.8210   38.9910 C.3   209  VAL209      0.0022
    108  CG2      -15.0640   24.0460   37.2720 C.3   209  VAL209      0.0022
@<TRIPOS>BOND
     1    47    46    1
     2    44    43    1
     3    44    45    1
     4     1     2    1
     5    46    45    2
     6    46    48    1
     7     5     2    1
     8     5     6    1
     9     5     7    1
    10     2     3    1
    11    43    42    1
    12    66    65    2
    13    42    39    1
    14    63    64    1
    15    63    60    1
    16    62    61    2
    17    64    65    1
    18    58    57    1
    19    65    67   am
    20    61    60    1
    21    61    68   am
    22    39    40    1
    23    39    38    1
    24     3     4    2
    25     3     8   am
    26    60    59    1
    27    40    41    2
    28    69    68    1
    29    69    70    1
    30    59    55   am
    31    57    54    1
    32     8     9    1
    33    38    32   am
    34    55    54    1
    35    55    56    2
    36    70    71    2
    37    54    53    1
    38    33    32    2
    39     9    10    1
    40     9    12    1
    41    32    31    1
    42    11    10    2
    43    27    26    2
    44    53    51   am
    45    13    12    1
    46    13    29    1
    47   108   106    1
    48    52    51    2
    49    23    22   ar
    50    23    21   ar
    51    31    34    1
    52    31    30    1
    53    34    35    1
    54    51    50    1
    55    22    20   ar
    56    26    25    1
    57    17    16    2
    58    25    28    1
    59    25    24    1
    60    72    73    1
    61    21    19   ar
    62    20    19   ar
    63    28    29    1
    64   106   107    1
    65   106   103    1
    66    50    49    1
    67    77    76    1
    68    76    73    1
    69    35    37   ar
    70    35    36   ar
    71    16    24   am
    72    16    15    1
    73    75    74    2
    74    19    18    1
    75   105   104    2
    76   104   103    1
    77    73    74    1
    78   103   102    1
    79   102    93   am
    80    15    18    1
    81    15    14    1
    82    93    92    1
    83    93    94    2
    84    88    87    2
    85    92    95    1
    86    92    91    1
    87    84    82    1
    88    95    96    1
    89    87    91   am
    90    87    86    1
    91    82    83    1
    92    82    79    1
    93    81    80    2
    94    96    97   ar
    95    96    98   ar
    96    97    99   ar
    97    86    85    1
    98    86    89    1
    99    80    85   am
   100    80    79    1
   101    79    78    1
   102    98   100   ar
   103    99   101   ar
   104    90    89    1
   105   100   101   ar
