@<TRIPOS>MOLECULE
tmp/1e3iA01.pdb
 102 96 0 0 0
SMALL
GASTEIGER

@<TRIPOS>ATOM
      1  N         93.9710   29.8810   16.6130 N.3    46  CYS46      -0.1235
      2  CA        93.5210   30.0370   17.9850 C.3    46  CYS46       0.1677
      3  C         93.2240   28.6550   18.5540 C.2    46  CYS46       0.2270
      4  O         92.8360   27.7490   17.8180 O.2    46  CYS46      -0.2867
      5  CB        92.2570   30.8870   18.0350 C.3    46  CYS46       0.0956
      6  SG        91.2790   30.6090   19.5180 S.3    46  CYS46      -0.0801
      7  N         90.9910   27.3920   19.8900 N.3    48  THR48      -0.1218
      8  CA        89.6240   26.9690   19.6070 C.3    48  THR48       0.1862
      9  C         89.5410   26.2550   18.2630 C.2    48  THR48       0.2287
     10  O         88.6750   25.4030   18.0570 O.2    48  THR48      -0.2866
     11  CB        88.6500   28.1680   19.6340 C.3    48  THR48       0.1770
     12  OG1       88.6180   28.7070   20.9620 O.3    48  THR48      -0.2211
     13  CG2       87.2390   27.7320   19.2460 C.3    48  THR48       0.0375
     14  N         89.3800   31.4960   12.5250 N.3    67  HIS67      -0.1241
     15  CA        88.4630   32.6110   12.7620 C.3    67  HIS67       0.1621
     16  C         89.1490   33.8960   13.2240 C.2    67  HIS67       0.2264
     17  O         88.4840   34.9050   13.4350 O.2    67  HIS67      -0.2867
     18  CB        87.4060   32.2150   13.7810 C.3    67  HIS67       0.0745
     19  CG        87.9810   31.8100   15.0960 C.ar   67  HIS67       0.0817
     20  ND1       88.5730   30.5850   15.2950 N.ar   67  HIS67      -0.2268
     21  CD2       88.1070   32.4870   16.2600 C.ar   67  HIS67       0.1154
     22  CE1       89.0450   30.5200   16.5260 C.ar   67  HIS67       0.1986
     23  NE2       88.7740   31.6610   17.1310 N.ar   67  HIS67      -0.2212
     24  N         83.8970   35.9310   15.3440 N.3    93  PHE93      -0.1241
     25  CA        82.8470   34.9770   15.6770 C.3    93  PHE93       0.1605
     26  C         81.6600   35.6080   16.4060 C.2    93  PHE93       0.2264
     27  O         80.5640   35.0440   16.4170 O.2    93  PHE93      -0.2867
     28  CB        83.4260   33.8300   16.5200 C.3    93  PHE93       0.0534
     29  CG        83.8220   34.2330   17.9140 C.ar   93  PHE93      -0.0203
     30  CD1       82.8610   34.3830   18.9130 C.ar   93  PHE93      -0.0042
     31  CD2       85.1580   34.4610   18.2320 C.ar   93  PHE93      -0.0042
     32  CE1       83.2280   34.7540   20.2060 C.ar   93  PHE93      -0.0003
     33  CE2       85.5330   34.8310   19.5240 C.ar   93  PHE93      -0.0003
     34  CZ        84.5660   34.9770   20.5110 C.ar   93  PHE93      -0.0000
     35  N         78.7000   26.8020   21.3700 N.3   120  PRO120     -0.2102
     36  CA        79.0140   27.9090   20.4620 C.3   120  PRO120      0.1504
     37  C         80.0120   27.5280   19.3650 C.2   120  PRO120      0.2576
     38  O         79.9880   28.0910   18.2690 O.2   120  PRO120     -0.2718
     39  CB        79.5650   28.9810   21.4110 C.3   120  PRO120      0.0282
     40  CG        78.7840   28.7380   22.6690 C.3   120  PRO120      0.0208
     41  CD        78.8390   27.2240   22.7760 C.3   120  PRO120      0.0893
     42  N         80.8760   26.5590   19.6560 N.am  121  THR121     -0.1953
     43  CA        81.8910   26.1190   18.7030 C.3   121  THR121      0.1897
     44  C         81.3380   25.4940   17.4130 C.2   121  THR121      0.2313
     45  O         81.9870   25.5620   16.3640 O.2   121  THR121     -0.2863
     46  CB        82.8680   25.1170   19.3620 C.3   121  THR121      0.1794
     47  OG1       83.8940   24.7610   18.4250 O.3   121  THR121     -0.2208
     48  CG2       82.1330   23.8640   19.8100 C.3   121  THR121      0.0378
     49  N         82.5800   28.9270   12.9900 N.3   145  MET145     -0.1245
     50  CA        82.3310   30.0910   13.8270 C.3   145  MET145      0.1570
     51  C         82.0770   31.3640   13.0290 C.2   145  MET145      0.2261
     52  O         82.5090   32.4440   13.4200 O.2   145  MET145     -0.2867
     53  CB        83.5100   30.2950   14.7870 C.3   145  MET145      0.0387
     54  CG        83.7870   29.0820   15.6750 C.3   145  MET145      0.0595
     55  SD        85.1290   29.3370   16.8660 S.3   145  MET145     -0.1393
     56  CE        84.2480   30.2050   18.1270 C.3   145  MET145      0.0692
     57  N         90.3450   37.7970   17.3840 N.3   178  CYS178     -0.1235
     58  CA        89.8920   36.9580   18.4930 C.3   178  CYS178      0.1677
     59  C         90.7110   36.9860   19.7780 C.2   178  CYS178      0.2270
     60  O         90.2470   37.4760   20.8080 O.2   178  CYS178     -0.2867
     61  CB        89.7610   35.5000   18.0550 C.3   178  CYS178      0.0956
     62  SG        89.7450   34.4310   19.4960 S.3   178  CYS178     -0.0801
     63  N         89.6770   39.4700   22.9650 N.3   182  SER182     -0.1217
     64  CA        89.0640   38.6880   24.0270 C.3   182  SER182      0.1889
     65  C         89.7150   38.9000   25.3900 C.2   182  SER182      0.2288
     66  O         89.0230   39.1180   26.3800 O.2   182  SER182     -0.2866
     67  CB        89.0790   37.2080   23.6510 C.3   182  SER182      0.2089
     68  OG        88.2290   36.9800   22.5370 O.3   182  SER182     -0.2183
     69  N         87.4260   33.3080   31.1860 N.3   296  VAL296     -0.1231
     70  CA        87.7480   33.6620   29.8100 C.3   296  VAL296      0.1692
     71  C         87.9750   32.3630   29.0490 C.2   296  VAL296      0.2593
     72  O         87.3200   32.1010   28.0440 O.2   296  VAL296     -0.2718
     73  CB        89.0200   34.5330   29.7380 C.3   296  VAL296      0.0266
     74  CG1       89.3380   34.8630   28.2910 C.3   296  VAL296      0.0020
     75  CG2       88.8080   35.8250   30.5340 C.3   296  VAL296      0.0020
     76  N         88.9130   31.5570   29.5370 N.am  297  GLY297     -0.1942
     77  CA        89.1830   30.2750   28.9120 C.3   297  GLY297      0.2014
     78  C         88.3460   29.2150   29.6060 C.2   297  GLY297      0.2638
     79  O         87.9570   29.3940   30.7640 O.2   297  GLY297     -0.2714
     80  N         88.0540   28.1200   28.9110 N.am  298  ALA298     -0.1977
     81  CA        87.2590   27.0400   29.4920 C.3   298  ALA298      0.1597
     82  C         87.4950   25.7260   28.7690 C.2   298  ALA298      0.2287
     83  O         86.8740   25.4540   27.7440 O.2   298  ALA298     -0.2864
     84  CB        85.7760   27.3910   29.4480 C.3   298  ALA298      0.0319
     85  N         83.3860   36.0920   29.9400 N.3   319  THR319     -0.1203
     86  CA        83.4040   36.9450   28.7650 C.3   319  THR319      0.1994
     87  C         83.1460   36.1710   27.4740 C.2   319  THR319      0.2617
     88  O         83.2810   34.9460   27.4200 O.2   319  THR319     -0.2717
     89  CB        84.7790   37.6730   28.6530 C.3   319  THR319      0.1784
     90  OG1       84.6520   38.8400   27.8280 O.3   319  THR319     -0.2211
     91  CG2       85.8350   36.7360   28.0450 C.3   319  THR319      0.0376
     92  N         82.7770   36.9190   26.4400 N.am  320  PHE320     -0.1975
     93  CA        82.5110   36.3920   25.1040 C.3   320  PHE320      0.1639
     94  C         83.1200   37.4660   24.2050 C.2   320  PHE320      0.2290
     95  O         82.5770   38.5660   24.0950 O.2   320  PHE320     -0.2864
     96  CB        81.0000   36.2940   24.8670 C.3   320  PHE320      0.0560
     97  CG        80.6210   35.7050   23.5370 C.ar  320  PHE320     -0.0200
     98  CD1       80.7220   34.3340   23.3110 C.ar  320  PHE320     -0.0042
     99  CD2       80.1430   36.5220   22.5130 C.ar  320  PHE320     -0.0042
    100  CE1       80.3460   33.7840   22.0820 C.ar  320  PHE320     -0.0003
    101  CE2       79.7640   35.9840   21.2820 C.ar  320  PHE320     -0.0003
    102  CZ        79.8650   34.6120   21.0670 C.ar  320  PHE320     -0.0000
@<TRIPOS>BOND
     1    14    15    1
     2    15    16    1
     3    15    18    1
     4    49    50    1
     5    51    52    2
     6    51    50    1
     7    16    17    2
     8    18    19    1
     9    50    53    1
    10    53    54    1
    11    19    20   ar
    12    19    21   ar
    13    20    22   ar
    14    24    25    1
    15    54    55    1
    16    25    26    1
    17    25    28    1
    18    21    23   ar
    19    45    44    2
    20    26    27    2
    21    28    29    1
    22    22    23   ar
    23     1     2    1
    24    55    56    1
    25    57    58    1
    26    44    43    1
    27     4     3    2
    28    29    31   ar
    29    29    30   ar
    30     2     5    1
    31     2     3    1
    32     5     6    1
    33    61    58    1
    34    61    62    1
    35    10     9    2
    36    31    33   ar
    37     9     8    1
    38    38    37    2
    39    47    46    1
    40    58    59    1
    41    43    46    1
    42    43    42    1
    43    30    32   ar
    44    13    11    1
    45    46    48    1
    46    37    42   am
    47    37    36    1
    48    33    34   ar
    49     8    11    1
    50     8     7    1
    51    11    12    1
    52    59    60    2
    53    32    34   ar
    54    36    35    1
    55    36    39    1
    56   102   101   ar
    57   102   100   ar
    58   101    99   ar
    59    35    41    1
    60    39    40    1
    61   100    98   ar
    62    99    97   ar
    63    68    67    1
    64    40    41    1
    65    63    64    1
    66    98    97   ar
    67    97    96    1
    68    67    64    1
    69    64    65    1
    70    95    94    2
    71    94    93    1
    72    96    93    1
    73    93    92    1
    74    65    66    2
    75    92    87   am
    76    88    87    2
    77    87    86    1
    78    83    82    2
    79    90    89    1
    80    72    71    2
    81    91    89    1
    82    74    73    1
    83    89    86    1
    84    86    85    1
    85    82    81    1
    86    80    81    1
    87    80    78   am
    88    77    76    1
    89    77    78    1
    90    71    76   am
    91    71    70    1
    92    84    81    1
    93    78    79    2
    94    73    70    1
    95    73    75    1
    96    70    69    1
