@<TRIPOS>MOLECULE
tmp/1e3qA00.pdb
 216 215 0 0 0
SMALL
GASTEIGER

@<TRIPOS>ATOM
      1  N         -7.1660   65.1730   67.2810 N.3    68  TYR68      -0.1241
      2  CA        -6.7030   65.3780   68.6290 C.3    68  TYR68       0.1605
      3  C         -6.1260   66.8040   68.7410 C.2    68  TYR68       0.2264
      4  O         -5.3350   67.2520   67.9120 O.2    68  TYR68      -0.2867
      5  CB        -5.6410   64.3280   68.9700 C.3    68  TYR68       0.0534
      6  CG        -5.0440   64.4920   70.3470 C.ar   68  TYR68      -0.0201
      7  CD1       -5.7290   64.0670   71.4810 C.ar   68  TYR68      -0.0009
      8  CD2       -3.8170   65.1450   70.5210 C.ar   68  TYR68      -0.0009
      9  CE1       -5.2070   64.3000   72.7650 C.ar   68  TYR68       0.0417
     10  CE2       -3.2900   65.3780   71.7930 C.ar   68  TYR68       0.0417
     11  CZ        -3.9870   64.9590   72.9150 C.ar   68  TYR68       0.1957
     12  OH        -3.4750   65.2120   74.1790 O.3    68  TYR68      -0.2866
     13  N         -3.8840   69.4060   70.9150 N.3    70  ASP70      -0.1239
     14  CA        -2.8360   69.4870   71.9160 C.3    70  ASP70       0.1674
     15  C         -3.1800   70.5240   72.9510 C.2    70  ASP70       0.2266
     16  O         -3.1880   71.7140   72.6490 O.2    70  ASP70      -0.2867
     17  CB        -1.5200   69.8740   71.2620 C.3    70  ASP70       0.1410
     18  CG        -0.4170   70.1140   72.2700 C.2    70  ASP70       0.3668
     19  OD1       -0.4550   69.5310   73.3690 O.co2  70  ASP70      -0.2456
     20  OD2        0.5020   70.8840   71.9510 O.co2  70  ASP70      -0.2456
     21  N         -1.6120   70.4750   76.0060 N.3    72  GLN72      -0.1245
     22  CA        -0.4950   70.4100   76.9270 C.3    72  GLN72       0.1566
     23  C         -0.0090   71.7370   77.5270 C.2    72  GLN72       0.2260
     24  O          0.3140   71.8110   78.7090 O.2    72  GLN72      -0.2867
     25  CB         0.6470   69.6960   76.2280 C.3    72  GLN72       0.0367
     26  CG         0.7550   68.3000   76.6800 C.3    72  GLN72       0.0905
     27  CD         1.2660   68.2580   78.0870 C.2    72  GLN72       0.2608
     28  OE1        1.0110   67.3060   78.8260 O.2    72  GLN72      -0.2717
     29  NE2        2.0120   69.2970   78.4750 N.am   72  GLN72      -0.0878
     30  N          0.1690   75.1110   66.1150 N.3    82  TRP82      -0.1241
     31  CA        -0.0940   73.9230   65.3080 C.3    82  TRP82       0.1605
     32  C         -1.5020   73.3890   65.4820 C.2    82  TRP82       0.2264
     33  O         -1.9430   72.5570   64.6860 O.2    82  TRP82      -0.2867
     34  CB         0.8810   72.7970   65.6350 C.3    82  TRP82       0.0550
     35  CG         2.2660   73.2420   65.7030 C.ar   82  TRP82       0.0003
     36  CD1        2.9880   73.4800   66.8260 C.ar   82  TRP82       0.0946
     37  CD2        3.1300   73.5040   64.6040 C.ar   82  TRP82       0.0152
     38  NE1        4.2630   73.8690   66.4980 N.ar   82  TRP82      -0.2442
     39  CE2        4.3770   73.8910   65.1380 C.ar   82  TRP82       0.0810
     40  CE3        2.9770   73.4460   63.2170 C.ar   82  TRP82       0.0012
     41  CZ2        5.4620   74.2150   64.3380 C.ar   82  TRP82       0.0191
     42  CZ3        4.0550   73.7700   62.4180 C.ar   82  TRP82       0.0001
     43  CH2        5.2830   74.1490   62.9800 C.ar   82  TRP82       0.0015
     44  N          1.4450   67.8800   57.8160 N.3   115  GLY115     -0.1210
     45  CA         1.5400   66.5960   58.4830 C.3   115  GLY115      0.1956
     46  C          1.7640   66.6740   59.9790 C.2   115  GLY115      0.2612
     47  O          2.3810   67.6070   60.4740 O.2   115  GLY115     -0.2717
     48  N          1.2700   65.6890   60.7080 N.am  116  GLY116     -0.1942
     49  CA         1.4680   65.6970   62.1320 C.3   116  GLY116      0.2014
     50  C          1.2000   64.3170   62.6520 C.2   116  GLY116      0.2639
     51  O          0.1390   64.0760   63.2150 O.2   116  GLY116     -0.2714
     52  N          2.1410   63.4000   62.4590 N.am  117  GLY117     -0.1954
     53  CA         1.9450   62.0390   62.9470 C.3   117  GLY117      0.1869
     54  C          0.7460   61.2680   62.3950 C.2   117  GLY117      0.2309
     55  O          0.4070   60.1910   62.8940 O.2   117  GLY117     -0.2863
     56  N         -2.2590   61.9890   62.6710 N.3   119  TYR119     -0.1227
     57  CA        -3.4010   62.0970   63.5720 C.3   119  TYR119      0.1736
     58  C         -3.8910   63.5610   63.7080 C.2   119  TYR119      0.2596
     59  O         -4.9830   63.8380   64.2400 O.2   119  TYR119     -0.2718
     60  CB        -3.0060   61.5370   64.9410 C.3   119  TYR119      0.0548
     61  CG        -2.1280   62.4630   65.7750 C.ar  119  TYR119     -0.0200
     62  CD1       -2.6460   63.6530   66.2970 C.ar  119  TYR119     -0.0009
     63  CD2       -0.8040   62.1370   66.0760 C.ar  119  TYR119     -0.0009
     64  CE1       -1.8880   64.4850   67.0950 C.ar  119  TYR119      0.0417
     65  CE2       -0.0380   62.9690   66.8770 C.ar  119  TYR119      0.0417
     66  CZ        -0.5960   64.1400   67.3900 C.ar  119  TYR119      0.1957
     67  OH         0.0890   64.9460   68.2730 O.3   119  TYR119     -0.2866
     68  N         -3.0700   64.4930   63.2280 N.am  120  SER120     -0.1952
     69  CA        -3.3970   65.9090   63.2850 C.3   120  SER120      0.1924
     70  C         -2.8620   66.5660   62.0380 C.2   120  SER120      0.2314
     71  O         -2.0580   65.9850   61.3240 O.2   120  SER120     -0.2863
     72  CB        -2.7580   66.5510   64.5060 C.3   120  SER120      0.2116
     73  OG        -1.3410   66.4240   64.4690 O.3   120  SER120     -0.2180
     74  N         -3.4670   76.7340   59.1220 N.3   125  LEU125     -0.1245
     75  CA        -2.5720   77.3490   60.0920 C.3   125  LEU125      0.1561
     76  C         -1.8470   78.5490   59.4950 C.2   125  LEU125      0.2260
     77  O         -1.4610   78.5400   58.3290 O.2   125  LEU125     -0.2867
     78  CB        -1.5430   76.3380   60.5840 C.3   125  LEU125      0.0270
     79  CG        -2.0990   75.0380   61.1470 C.3   125  LEU125      0.0019
     80  CD1       -0.9580   74.2890   61.7780 C.3   125  LEU125      0.0001
     81  CD2       -3.2010   75.3100   62.1600 C.3   125  LEU125      0.0001
     82  N          1.3330   78.2330   57.5110 N.3   128  TYR128     -0.1241
     83  CA         1.2310   77.6940   56.1510 C.3   128  TYR128      0.1605
     84  C          0.4970   78.6610   55.2290 C.2   128  TYR128      0.2264
     85  O         -0.3270   78.2410   54.4060 O.2   128  TYR128     -0.2867
     86  CB         0.4590   76.3740   56.1290 C.3   128  TYR128      0.0534
     87  CG         0.9230   75.2800   57.0690 C.ar  128  TYR128     -0.0201
     88  CD1        2.2690   75.1000   57.3850 C.ar  128  TYR128     -0.0009
     89  CD2        0.0010   74.3710   57.5860 C.ar  128  TYR128     -0.0009
     90  CE1        2.6760   74.0340   58.1900 C.ar  128  TYR128      0.0417
     91  CE2        0.3970   73.3060   58.3870 C.ar  128  TYR128      0.0417
     92  CZ         1.7310   73.1340   58.6880 C.ar  128  TYR128      0.1957
     93  OH         2.0910   72.0460   59.4690 O.3   128  TYR128     -0.2866
     94  N          6.1130   68.1200   55.0730 N.3   197  GLU197     -0.1231
     95  CA         7.0160   67.8940   56.2070 C.3   197  GLU197      0.1699
     96  C          6.4480   66.9240   57.2600 C.2   197  GLU197      0.2592
     97  O          5.2480   66.9050   57.5530 O.2   197  GLU197     -0.2718
     98  CB         7.3690   69.2330   56.8740 C.3   197  GLU197      0.0402
     99  CG         8.2240   69.1390   58.1450 C.3   197  GLU197      0.1161
    100  CD         7.3950   69.0810   59.4240 C.2   197  GLU197      0.3649
    101  OE1        6.1680   69.2970   59.3530 O.co2 197  GLU197     -0.2457
    102  OE2        7.9660   68.8280   60.5020 O.co2 197  GLU197     -0.2457
    103  N          7.3340   66.1260   57.8430 N.am  198  SER198     -0.1952
    104  CA         6.9390   65.1610   58.8530 C.3   198  SER198      0.1924
    105  C          6.0530   64.1200   58.1850 C.2   198  SER198      0.2314
    106  O          6.4960   63.4870   57.2380 O.2   198  SER198     -0.2863
    107  CB         6.2080   65.8580   59.9990 C.3   198  SER198      0.2116
    108  OG         5.6740   64.9000   60.8960 O.3   198  SER198     -0.2180
    109  N         -5.7060   56.9840   71.2860 N.3   277  TRP277     -0.1241
    110  CA        -4.3800   56.5630   71.7250 C.3   277  TRP277      0.1605
    111  C         -4.3520   55.2930   72.5520 C.2   277  TRP277      0.2264
    112  O         -3.2810   54.7790   72.8420 O.2   277  TRP277     -0.2867
    113  CB        -3.7030   57.6580   72.5450 C.3   277  TRP277      0.0550
    114  CG        -3.4500   58.9400   71.8260 C.ar  277  TRP277      0.0003
    115  CD1       -4.2880   60.0160   71.7360 C.ar  277  TRP277      0.0946
    116  CD2       -2.2790   59.2820   71.0810 C.ar  277  TRP277      0.0152
    117  NE1       -3.7100   61.0080   70.9820 N.ar  277  TRP277     -0.2442
    118  CE2       -2.4780   60.5830   70.5630 C.ar  277  TRP277      0.0810
    119  CE3       -1.0810   58.6150   70.7940 C.ar  277  TRP277      0.0012
    120  CZ2       -1.5240   61.2280   69.7750 C.ar  277  TRP277      0.0191
    121  CZ3       -0.1320   59.2590   70.0100 C.ar  277  TRP277      0.0001
    122  CH2       -0.3600   60.5530   69.5080 C.ar  277  TRP277      0.0015
    123  N          7.4110   56.3760   72.6490 N.3   285  ILE285     -0.1231
    124  CA         7.4440   57.7330   72.1840 C.3   285  ILE285      0.1692
    125  C          7.6550   57.6720   70.6560 C.2   285  ILE285      0.2592
    126  O          8.5110   56.9270   70.1740 O.2   285  ILE285     -0.2718
    127  CB         8.6070   58.4470   72.9270 C.3   285  ILE285      0.0266
    128  CG1        8.8000   59.8600   72.4210 C.3   285  ILE285      0.0019
    129  CG2        9.9010   57.6730   72.7520 C.3   285  ILE285      0.0020
    130  CD1       10.1490   60.4470   72.8270 C.3   285  ILE285      0.0001
    131  N          6.8380   58.4180   69.9080 N.am  286  PHE286     -0.1976
    132  CA         6.9200   58.5050   68.4430 C.3   286  PHE286      0.1639
    133  C          6.2930   57.3550   67.6630 C.2   286  PHE286      0.2290
    134  O          6.9390   56.7550   66.8100 O.2   286  PHE286     -0.2864
    135  CB         8.3710   58.6520   67.9870 C.3   286  PHE286      0.0560
    136  CG         8.5610   59.5920   66.8210 C.ar  286  PHE286     -0.0200
    137  CD1        7.6510   59.6320   65.7750 C.ar  286  PHE286     -0.0042
    138  CD2        9.6840   60.4330   66.7650 C.ar  286  PHE286     -0.0042
    139  CE1        7.8560   60.5030   64.6810 C.ar  286  PHE286     -0.0003
    140  CE2        9.8970   61.3040   65.6780 C.ar  286  PHE286     -0.0003
    141  CZ         8.9840   61.3400   64.6360 C.ar  286  PHE286     -0.0000
    142  N          2.1070   56.3410   66.2430 N.3   288  PHE288     -0.1241
    143  CA         0.7440   56.8210   66.1770 C.3   288  PHE288      0.1605
    144  C         -0.1800   55.6740   65.8470 C.2   288  PHE288      0.2264
    145  O          0.2040   54.7540   65.1450 O.2   288  PHE288     -0.2867
    146  CB         0.7010   57.9130   65.1210 C.3   288  PHE288      0.0534
    147  CG         1.8750   58.8530   65.2110 C.ar  288  PHE288     -0.0203
    148  CD1        2.0240   59.6950   66.3160 C.ar  288  PHE288     -0.0042
    149  CD2        2.8820   58.8240   64.2510 C.ar  288  PHE288     -0.0042
    150  CE1        3.1630   60.4900   66.4670 C.ar  288  PHE288     -0.0003
    151  CE2        4.0240   59.6130   64.3930 C.ar  288  PHE288     -0.0003
    152  CZ         4.1640   60.4480   65.5070 C.ar  288  PHE288     -0.0000
    153  N         11.4950   67.5500   70.4670 N.3   328  PHE328     -0.1227
    154  CA        10.0660   67.7390   70.6900 C.3   328  PHE328      0.1736
    155  C          9.2940   66.5670   71.2750 C.2   328  PHE328      0.2595
    156  O          8.3860   66.7620   72.0780 O.2   328  PHE328     -0.2718
    157  CB         9.4170   68.1620   69.3690 C.3   328  PHE328      0.0547
    158  CG         7.9930   68.5770   69.5010 C.ar  328  PHE328     -0.0202
    159  CD1        7.6720   69.8940   69.7990 C.ar  328  PHE328     -0.0042
    160  CD2        6.9660   67.6560   69.3190 C.ar  328  PHE328     -0.0042
    161  CE1        6.3500   70.3020   69.9150 C.ar  328  PHE328     -0.0003
    162  CE2        5.6240   68.0540   69.4340 C.ar  328  PHE328     -0.0003
    163  CZ         5.3210   69.3860   69.7340 C.ar  328  PHE328     -0.0000
    164  N          9.6500   65.3540   70.8660 N.am  329  PHE329     -0.1976
    165  CA         8.9480   64.1510   71.3130 C.3   329  PHE329      0.1639
    166  C          9.2610   63.7560   72.7330 C.2   329  PHE329      0.2290
    167  O          8.3740   63.3180   73.4660 O.2   329  PHE329     -0.2864
    168  CB         9.2260   63.0090   70.3370 C.3   329  PHE329      0.0560
    169  CG         8.8490   63.3500   68.9180 C.ar  329  PHE329     -0.0200
    170  CD1        9.7180   64.0740   68.1060 C.ar  329  PHE329     -0.0042
    171  CD2        7.5790   63.0500   68.4300 C.ar  329  PHE329     -0.0042
    172  CE1        9.3310   64.4930   66.8520 C.ar  329  PHE329     -0.0003
    173  CE2        7.1740   63.4730   67.1580 C.ar  329  PHE329     -0.0003
    174  CZ         8.0490   64.1920   66.3750 C.ar  329  PHE329     -0.0000
    175  N          7.3840   65.9330   75.1900 N.3   332  TYR332     -0.1227
    176  CA         5.9940   65.4860   75.3080 C.3   332  TYR332      0.1736
    177  C          5.7790   64.1010   75.8520 C.2   332  TYR332      0.2596
    178  O          4.7060   63.8170   76.3670 O.2   332  TYR332     -0.2718
    179  CB         5.2740   65.5370   73.9620 C.3   332  TYR332      0.0548
    180  CG         4.6520   66.8690   73.6320 C.ar  332  TYR332     -0.0200
    181  CD1        5.4500   67.9900   73.4240 C.ar  332  TYR332     -0.0009
    182  CD2        3.2590   67.0220   73.5730 C.ar  332  TYR332     -0.0009
    183  CE1        4.8910   69.2360   73.1780 C.ar  332  TYR332      0.0417
    184  CE2        2.6720   68.2740   73.3200 C.ar  332  TYR332      0.0417
    185  CZ         3.5020   69.3840   73.1300 C.ar  332  TYR332      0.1957
    186  OH         2.9760   70.6570   72.9450 O.3   332  TYR332     -0.2866
    187  N          6.7730   63.2300   75.7490 N.am  333  GLY333     -0.1957
    188  CA         6.5420   61.8790   76.2180 C.3   333  GLY333      0.1869
    189  C          7.5120   61.1950   77.1490 C.2   333  GLY333      0.2309
    190  O          7.1480   60.2250   77.8070 O.2   333  GLY333     -0.2863
    191  N         12.0080   70.0980   65.5890 N.3   438  HIS438     -0.1226
    192  CA        11.2830   69.4340   64.5110 C.3   438  HIS438      0.1752
    193  C         10.1380   70.3290   64.0280 C.2   438  HIS438      0.2597
    194  O          9.3320   70.8300   64.8250 O.2   438  HIS438     -0.2718
    195  CB        10.7290   68.1140   65.0360 C.3   438  HIS438      0.0759
    196  CG         9.9800   67.3290   64.0180 C.ar  438  HIS438      0.0818
    197  ND1       10.6030   66.6990   62.9630 N.ar  438  HIS438     -0.2268
    198  CD2        8.6590   67.0590   63.8950 C.ar  438  HIS438      0.1154
    199  CE1        9.6980   66.0710   62.2330 C.ar  438  HIS438      0.1986
    200  NE2        8.5110   66.2740   62.7770 N.ar  438  HIS438     -0.2212
    201  N         10.0810   70.5330   62.7190 N.am  439  GLY439     -0.1942
    202  CA         9.0350   71.3580   62.1540 C.3   439  GLY439      0.2014
    203  C          9.3090   72.8440   62.2310 C.2   439  GLY439      0.2638
    204  O          8.4640   73.6470   61.8720 O.2   439  GLY439     -0.2714
    205  N         10.4890   73.2380   62.6780 N.am  440  TYR440     -0.1973
    206  CA        10.7350   74.6600   62.7560 C.3   440  TYR440      0.1639
    207  C         11.4940   75.3050   61.6130 C.2   440  TYR440      0.2290
    208  O         11.9850   76.4260   61.7360 O.2   440  TYR440     -0.2864
    209  CB        11.3450   75.0120   64.1140 C.3   440  TYR440      0.0560
    210  CG        10.2340   75.1890   65.1140 C.ar  440  TYR440     -0.0198
    211  CD1        9.6030   74.0810   65.6870 C.ar  440  TYR440     -0.0009
    212  CD2        9.6900   76.4570   65.3560 C.ar  440  TYR440     -0.0009
    213  CE1        8.4530   74.2300   66.4630 C.ar  440  TYR440      0.0417
    214  CE2        8.5420   76.6140   66.1260 C.ar  440  TYR440      0.0417
    215  CZ         7.9280   75.4970   66.6740 C.ar  440  TYR440      0.1957
    216  OH         6.7860   75.6500   67.4210 O.3   440  TYR440     -0.2866
@<TRIPOS>BOND
     1    85    84    2
     2    94    95    1
     3    84    83    1
     4    86    83    1
     5    86    87    1
     6    83    82    1
     7    95    98    1
     8    95    96    1
     9    98    99    1
    10    87    88   ar
    11    87    89   ar
    12   106   105    2
    13    96    97    2
    14    96   103   am
    15    88    90   ar
    16    89    91   ar
    17    44    45    1
    18   103   104    1
    19    99   100    1
    20   105   104    1
    21    90    92   ar
    22    77    76    2
    23    91    92   ar
    24    45    46    1
    25    92    93    1
    26   104   107    1
    27    74    75    1
    28   101   100   ar
    29   100   102   ar
    30    76    75    1
    31    46    47    2
    32    46    48   am
    33   107   108    1
    34    75    78    1
    35    78    79    1
    36    48    49    1
    37    79    80    1
    38    79    81    1
    39    71    70    2
    40   207   208    2
    41   207   206    1
    42   204   203    2
    43    70    69    1
    44    49    50    1
    45   202   203    1
    46   202   201    1
    47   203   205   am
    48   199   200   ar
    49   199   197   ar
    50    54    55    2
    51    54    53    1
    52    42    43   ar
    53    42    40   ar
    54    52    50   am
    55    52    53    1
    56    50    51    2
    57    56    57    1
    58   205   206    1
    59   201   193   am
    60   206   209    1
    61   200   198   ar
    62   197   196   ar
    63    43    41   ar
    64    40    37   ar
    65    68    69    1
    66    68    58   am
    67    69    72    1
    68    57    58    1
    69    57    60    1
    70    58    59    2
    71   198   196   ar
    72   196   195    1
    73   193   192    1
    74   193   194    2
    75   209   210    1
    76   149   151   ar
    77   149   147   ar
    78    41    39   ar
    79   151   152   ar
    80    73    72    1
    81   192   195    1
    82   192   191    1
    83    37    39   ar
    84    37    35   ar
    85   141   139   ar
    86   141   140   ar
    87   139   137   ar
    88    33    32    2
    89    60    61    1
    90   210   212   ar
    91   210   211   ar
    92   146   147    1
    93   146   143    1
    94    39    38   ar
    95   145   144    2
    96   147   148   ar
    97    31    32    1
    98    31    34    1
    99    31    30    1
   100   212   214   ar
   101   152   150   ar
   102    34    35    1
   103   140   138   ar
   104   211   213   ar
   105    35    36   ar
   106   137   136   ar
   107    61    63   ar
   108    61    62   ar
   109   144   143    1
   110    63    65   ar
   111   214   215   ar
   112   143   142    1
   113    62    64   ar
   114   148   150   ar
   115   174   172   ar
   116   174   173   ar
   117   213   215   ar
   118    38    36   ar
   119   215   216    1
   120   138   136   ar
   121   134   133    2
   122   136   135    1
   123   172   170   ar
   124    65    66   ar
   125    64    66   ar
   126   173   171   ar
   127     1     2    1
   128    66    67    1
   129   133   132    1
   130     4     3    2
   131   135   132    1
   132   170   169   ar
   133   171   169   ar
   134   132   131    1
   135     2     3    1
   136     2     5    1
   137   169   168    1
   138     5     6    1
   139   160   162   ar
   140   160   158   ar
   141   157   158    1
   142   157   154    1
   143   162   163   ar
   144   158   159   ar
   145   122   120   ar
   146   122   121   ar
   147   163   161   ar
   148   120   118   ar
   149   159   161   ar
   150   131   125   am
   151   121   119   ar
   152   126   125    2
   153   168   165    1
   154     6     8   ar
   155     6     7   ar
   156   153   154    1
   157     8    10   ar
   158   118   117   ar
   159   118   116   ar
   160   125   124    1
   161   154   155    1
   162   119   116   ar
   163   164   155   am
   164   164   165    1
   165    13    14    1
   166   117   115   ar
   167   116   114   ar
   168    17    14    1
   169    17    18    1
   170   155   156    2
   171   109   110    1
   172   165   166    1
   173     7     9   ar
   174   110   113    1
   175   110   111    1
   176   115   114   ar
   177    10    11   ar
   178   114   113    1
   179    14    15    1
   180    20    18   ar
   181   124   123    1
   182   124   127    1
   183    18    19   ar
   184   128   130    1
   185   128   127    1
   186   111   112    2
   187    16    15    2
   188   166   167    2
   189   129   127    1
   190     9    11   ar
   191    11    12    1
   192   186   185    1
   193   185   183   ar
   194   185   184   ar
   195   183   181   ar
   196   184   182   ar
   197   181   180   ar
   198   182   180   ar
   199   180   179    1
   200   179   176    1
   201   175   176    1
   202   176   177    1
   203   187   177   am
   204   187   188    1
   205   177   178    2
   206    21    22    1
   207   188   189    1
   208    25    26    1
   209    25    22    1
   210    26    27    1
   211    22    23    1
   212   189   190    2
   213    23    24    2
   214    27    29   am
   215    27    28    2
