@<TRIPOS>MOLECULE
tmp/1e3vB00.pdb
 176 167 0 0 0
SMALL
GASTEIGER

@<TRIPOS>ATOM
      1  N          2.8240  -13.4190   57.4890 N.3    15  TYR15      -0.1241
      2  CA         3.4400  -14.7310   57.3440 C.3    15  TYR15       0.1605
      3  C          2.3580  -15.8300   57.3510 C.2    15  TYR15       0.2264
      4  O          2.3630  -16.7070   56.4860 O.2    15  TYR15      -0.2867
      5  CB         4.4610  -14.9590   58.4610 C.3    15  TYR15       0.0534
      6  CG         4.9470  -16.3840   58.5560 C.ar   15  TYR15      -0.0201
      7  CD1        5.9960  -16.8360   57.7600 C.ar   15  TYR15      -0.0009
      8  CD2        4.3250  -17.2980   59.4210 C.ar   15  TYR15      -0.0009
      9  CE1        6.4130  -18.1630   57.8170 C.ar   15  TYR15       0.0417
     10  CE2        4.7360  -18.6300   59.4850 C.ar   15  TYR15       0.0417
     11  CZ         5.7760  -19.0500   58.6790 C.ar   15  TYR15       0.1957
     12  OH         6.1840  -20.3560   58.7040 O.3    15  TYR15      -0.2866
     13  N          1.2340  -18.5300   54.3430 N.3    19  VAL19      -0.1245
     14  CA         1.2370  -19.9690   54.5980 C.3    19  VAL19       0.1561
     15  C         -0.1430  -20.5100   54.2310 C.2    19  VAL19       0.2260
     16  O         -0.2620  -21.5390   53.5760 O.2    19  VAL19      -0.2867
     17  CB         1.5280  -20.2980   56.0880 C.3    19  VAL19       0.0252
     18  CG1        1.2950  -21.7830   56.3540 C.3    19  VAL19       0.0019
     19  CG2        2.9630  -19.9320   56.4470 C.3    19  VAL19       0.0019
     20  N         11.9080  -26.3130   63.3000 N.3    39  ASP39      -0.1225
     21  CA        10.5330  -26.7880   63.2760 C.3    39  ASP39       0.1790
     22  C         10.4730  -28.3150   63.1150 C.2    39  ASP39       0.2439
     23  O         10.8080  -28.8510   62.0610 O.2    39  ASP39      -0.2733
     24  CB         9.8130  -26.1020   62.1100 C.3    39  ASP39       0.1423
     25  CG         8.3240  -26.3560   62.0870 C.2    39  ASP39       0.3668
     26  OD1        7.8340  -27.2860   62.7400 O.co2  39  ASP39      -0.2456
     27  OD2        7.6240  -25.6170   61.3770 O.co2  39  ASP39      -0.2456
     28  N         10.0410  -29.0310   64.1640 N.am   40  PRO40      -0.2729
     29  CA         9.6320  -28.4650   65.4520 C.3    40  PRO40       0.1401
     30  C         10.8540  -28.1080   66.2920 C.2    40  PRO40       0.2269
     31  O         11.9590  -28.5950   66.0290 O.2    40  PRO40      -0.2865
     32  CB         8.8220  -29.6050   66.0720 C.3    40  PRO40       0.0296
     33  CG         9.5170  -30.8070   65.5710 C.3    40  PRO40       0.0237
     34  CD         9.7450  -30.4740   64.1150 C.3    40  PRO40       0.0939
     35  N         12.1160  -26.8430   52.6700 N.3    55  PHE55      -0.1227
     36  CA        11.2660  -27.0850   53.8290 C.3    55  PHE55       0.1736
     37  C          9.8120  -26.7230   53.5250 C.2    55  PHE55       0.2595
     38  O          8.9080  -27.5380   53.7180 O.2    55  PHE55      -0.2718
     39  CB        11.7790  -26.2650   55.0230 C.3    55  PHE55       0.0547
     40  CG        10.8370  -26.2340   56.2120 C.ar   55  PHE55      -0.0202
     41  CD1       10.7130  -27.3390   57.0600 C.ar   55  PHE55      -0.0042
     42  CD2       10.0770  -25.0970   56.4830 C.ar   55  PHE55      -0.0042
     43  CE1        9.8400  -27.3070   58.1590 C.ar   55  PHE55      -0.0003
     44  CE2        9.2040  -25.0590   57.5780 C.ar   55  PHE55      -0.0003
     45  CZ         9.0870  -26.1620   58.4120 C.ar   55  PHE55      -0.0000
     46  N          9.5850  -25.5040   53.0420 N.am   56  TYR56      -0.1976
     47  CA         8.2330  -25.0480   52.7300 C.3    56  TYR56       0.1639
     48  C          7.5910  -25.7580   51.5460 C.2    56  TYR56       0.2290
     49  O          6.3860  -26.0210   51.5480 O.2    56  TYR56      -0.2864
     50  CB         8.2070  -23.5280   52.5200 C.3    56  TYR56       0.0560
     51  CG         8.2930  -22.7580   53.8190 C.ar   56  TYR56      -0.0198
     52  CD1        7.1810  -22.6390   54.6430 C.ar   56  TYR56      -0.0009
     53  CD2        9.5030  -22.2040   54.2530 C.ar   56  TYR56      -0.0009
     54  CE1        7.2700  -21.9930   55.8740 C.ar   56  TYR56       0.0417
     55  CE2        9.6020  -21.5510   55.4860 C.ar   56  TYR56       0.0417
     56  CZ         8.4810  -21.4550   56.2870 C.ar   56  TYR56       0.1957
     57  OH         8.5650  -20.8510   57.5190 O.3    56  TYR56      -0.2866
     58  N          8.1740  -28.7780   50.6510 N.3    58  GLN58      -0.1231
     59  CA         7.8630  -30.1010   51.1620 C.3    58  GLN58       0.1698
     60  C          6.6230  -30.1120   52.0440 C.2    58  GLN58       0.2593
     61  O          5.7990  -31.0100   51.9390 O.2    58  GLN58      -0.2718
     62  CB         9.0550  -30.6390   51.9450 C.3    58  GLN58       0.0381
     63  CG         9.3400  -32.0910   51.6700 C.3    58  GLN58       0.0905
     64  CD         9.5590  -32.3730   50.1920 C.2    58  GLN58       0.2608
     65  OE1        9.7860  -31.4600   49.3890 O.2    58  GLN58      -0.2717
     66  NE2        9.5000  -33.6480   49.8250 N.am   58  GLN58      -0.0878
     67  N          6.4980  -29.1110   52.9110 N.am   59  GLY59      -0.1942
     68  CA         5.3580  -29.0360   53.8020 C.3    59  GLY59       0.2014
     69  C          4.0660  -28.5320   53.1890 C.2    59  GLY59       0.2638
     70  O          2.9890  -29.0190   53.5360 O.2    59  GLY59      -0.2714
     71  N          4.1550  -27.5510   52.2940 N.am   60  LEU60      -0.1977
     72  CA         2.9630  -26.9870   51.6650 C.3    60  LEU60       0.1596
     73  C          2.6420  -27.6130   50.3100 C.2    60  LEU60       0.2287
     74  O          3.5120  -27.7510   49.4500 O.2    60  LEU60      -0.2864
     75  CB         3.0940  -25.4660   51.5340 C.3    60  LEU60       0.0297
     76  CG         3.3640  -24.7180   52.8450 C.3    60  LEU60       0.0022
     77  CD1        3.4710  -23.2210   52.5900 C.3    60  LEU60       0.0001
     78  CD2        2.2650  -25.0210   53.8450 C.3    60  LEU60       0.0001
     79  N         -3.2620  -27.0360   52.7160 N.3    65  VAL65      -0.1245
     80  CA        -2.9450  -26.5250   54.0440 C.3    65  VAL65       0.1561
     81  C         -3.6160  -25.1780   54.2660 C.2    65  VAL65       0.2260
     82  O         -3.6500  -24.3300   53.3720 O.2    65  VAL65      -0.2867
     83  CB        -1.4120  -26.3490   54.2450 C.3    65  VAL65       0.0252
     84  CG1       -1.1160  -25.6820   55.5860 C.3    65  VAL65       0.0019
     85  CG2       -0.7100  -27.6880   54.1760 C.3    65  VAL65       0.0019
     86  N         -1.3970  -20.3230   66.5840 N.3    85  PHE85      -0.1241
     87  CA        -2.1760  -20.5440   65.3750 C.3    85  PHE85       0.1605
     88  C         -2.4840  -22.0090   65.1780 C.2    85  PHE85       0.2264
     89  O         -1.8830  -22.8700   65.8210 O.2    85  PHE85      -0.2867
     90  CB        -1.4730  -19.9620   64.1350 C.3    85  PHE85       0.0534
     91  CG        -0.1420  -20.5890   63.8200 C.ar   85  PHE85      -0.0203
     92  CD1        1.0070  -20.2030   64.5060 C.ar   85  PHE85      -0.0042
     93  CD2       -0.0290  -21.5340   62.8050 C.ar   85  PHE85      -0.0042
     94  CE1        2.2450  -20.7420   64.1880 C.ar   85  PHE85      -0.0003
     95  CE2        1.2100  -22.0810   62.4780 C.ar   85  PHE85      -0.0003
     96  CZ         2.3470  -21.6850   63.1710 C.ar   85  PHE85      -0.0000
     97  N         -3.1770  -25.1410   62.2960 N.3    87  VAL87      -0.1245
     98  CA        -2.9200  -25.5670   60.9310 C.3    87  VAL87       0.1561
     99  C         -3.8210  -26.7610   60.6490 C.2    87  VAL87       0.2260
    100  O         -3.9860  -27.6410   61.4960 O.2    87  VAL87      -0.2867
    101  CB        -1.4400  -25.9870   60.7310 C.3    87  VAL87       0.0252
    102  CG1       -1.2220  -26.4710   59.3030 C.3    87  VAL87       0.0019
    103  CG2       -0.5100  -24.8220   61.0350 C.3    87  VAL87       0.0019
    104  N         -4.5210  -29.6900   57.7830 N.3    89  MET89      -0.1230
    105  CA        -3.9960  -30.3110   56.5860 C.3    89  MET89       0.1702
    106  C         -4.5600  -31.7140   56.4380 C.2    89  MET89       0.2592
    107  O         -5.4620  -32.1190   57.1790 O.2    89  MET89      -0.2718
    108  CB        -2.4560  -30.3040   56.5650 C.3    89  MET89       0.0401
    109  CG        -1.7620  -31.1960   57.5750 C.3    89  MET89       0.0596
    110  SD        -1.0250  -30.2740   58.9230 S.3    89  MET89      -0.1393
    111  CE        -2.3230  -30.3620   60.0870 C.3    89  MET89       0.0692
    112  N         -4.0320  -32.4460   55.4690 N.am   90  VAL90      -0.1980
    113  CA        -4.4880  -33.7940   55.1910 C.3    90  VAL90       0.1595
    114  C         -3.3260  -34.7850   55.2050 C.2    90  VAL90       0.2287
    115  O         -2.1690  -34.4170   54.9640 O.2    90  VAL90      -0.2864
    116  CB        -5.2180  -33.8190   53.8200 C.3    90  VAL90       0.0276
    117  CG1       -5.5240  -35.2160   53.4010 C.3    90  VAL90       0.0022
    118  CG2       -6.5090  -33.0150   53.8990 C.3    90  VAL90       0.0022
    119  N         -3.1970  -29.2120   63.8510 N.3    98  LEU98      -0.1245
    120  CA        -2.0650  -29.0380   64.7500 C.3    98  LEU98       0.1561
    121  C         -2.0760  -27.6180   65.3130 C.2    98  LEU98       0.2260
    122  O         -2.2460  -26.6490   64.5620 O.2    98  LEU98      -0.2867
    123  CB        -0.7600  -29.2630   63.9870 C.3    98  LEU98       0.0270
    124  CG         0.5390  -29.1360   64.7780 C.3    98  LEU98       0.0019
    125  CD1        0.7380  -30.3450   65.6730 C.3    98  LEU98       0.0001
    126  CD2        1.6990  -28.9890   63.8190 C.3    98  LEU98       0.0001
    127  N         -0.0230  -24.6970   67.0330 N.3   100  VAL100     -0.1245
    128  CA         1.3800  -24.3010   67.0600 C.3   100  VAL100      0.1561
    129  C          1.6110  -22.9000   67.6110 C.2   100  VAL100      0.2260
    130  O          0.7160  -22.0560   67.6120 O.2   100  VAL100     -0.2867
    131  CB         1.9550  -24.2800   65.6080 C.3   100  VAL100      0.0252
    132  CG1        3.4740  -24.1250   65.6180 C.3   100  VAL100      0.0019
    133  CG2        1.5170  -25.5110   64.8290 C.3   100  VAL100      0.0019
    134  N          4.6850  -20.0460   67.1110 N.3   102  ASP102     -0.1239
    135  CA         5.9400  -19.6830   66.4520 C.3   102  ASP102      0.1674
    136  C          6.5410  -18.4750   67.1760 C.2   102  ASP102      0.2266
    137  O          5.8140  -17.5580   67.5680 O.2   102  ASP102     -0.2867
    138  CB         5.7070  -19.2700   64.9870 C.3   102  ASP102      0.1410
    139  CG         5.6630  -20.4420   64.0280 C.2   102  ASP102      0.3668
    140  OD1        5.6740  -21.6050   64.4620 O.co2 102  ASP102     -0.2456
    141  OD2        5.6060  -20.1880   62.8080 O.co2 102  ASP102     -0.2456
    142  N         13.3360  -18.5170   63.1990 N.3   115  MET115     -0.1245
    143  CA        11.9640  -18.9430   63.4350 C.3   115  MET115      0.1570
    144  C         12.0340  -20.2580   64.1980 C.2   115  MET115      0.2261
    145  O         12.8510  -21.1280   63.8790 O.2   115  MET115     -0.2867
    146  CB        11.2090  -19.1310   62.1210 C.3   115  MET115      0.0387
    147  CG         9.7310  -19.4820   62.2980 C.3   115  MET115      0.0595
    148  SD         9.4270  -21.2220   62.6510 S.3   115  MET115     -0.1393
    149  CE         9.0720  -21.8560   61.0170 C.3   115  MET115      0.0692
    150  N          9.3500  -23.1630   65.9410 N.3   117  ALA117     -0.1245
    151  CA         7.9680  -23.5910   66.0910 C.3   117  ALA117      0.1562
    152  C          7.8280  -24.6170   67.2140 C.2   117  ALA117      0.2260
    153  O          8.5040  -25.6400   67.2190 O.2   117  ALA117     -0.2867
    154  CB         7.4530  -24.1610   64.7790 C.3   117  ALA117      0.0290
    155  N          5.6500  -27.3310   69.1280 N.3   119  TRP119     -0.1241
    156  CA         4.5570  -28.2810   68.9670 C.3   119  TRP119      0.1605
    157  C          5.1300  -29.6890   68.9960 C.2   119  TRP119      0.2264
    158  O          6.3380  -29.8830   68.8160 O.2   119  TRP119     -0.2867
    159  CB         3.8070  -28.0570   67.6420 C.3   119  TRP119      0.0550
    160  CG         4.6200  -28.3430   66.3990 C.ar  119  TRP119      0.0003
    161  CD1        5.3620  -27.4510   65.6880 C.ar  119  TRP119      0.0946
    162  CD2        4.7380  -29.6030   65.7130 C.ar  119  TRP119      0.0152
    163  NE1        5.9290  -28.0690   64.6000 N.ar  119  TRP119     -0.2442
    164  CE2        5.5690  -29.3870   64.5890 C.ar  119  TRP119      0.0810
    165  CE3        4.2260  -30.8910   65.9390 C.ar  119  TRP119      0.0012
    166  CZ2        5.8990  -30.4110   63.6870 C.ar  119  TRP119      0.0191
    167  CZ3        4.5550  -31.9150   65.0400 C.ar  119  TRP119      0.0001
    168  CH2        5.3860  -31.6630   63.9290 C.ar  119  TRP119      0.0015
    169  N         -1.2660  -32.5290   68.2430 N.3   124  LEU124     -0.1245
    170  CA        -1.7230  -33.0880   66.9800 C.3   124  LEU124      0.1561
    171  C         -3.0100  -33.8910   67.0350 C.2   124  LEU124      0.2260
    172  O         -3.3140  -34.5340   68.0320 O.2   124  LEU124     -0.2867
    173  CB        -0.5940  -33.9400   66.3880 C.3   124  LEU124      0.0270
    174  CG        -0.6880  -34.6190   65.0210 C.3   124  LEU124      0.0019
    175  CD1       -0.8630  -33.5970   63.9160 C.3   124  LEU124      0.0001
    176  CD2        0.5900  -35.4270   64.7900 C.3   124  LEU124      0.0001
@<TRIPOS>BOND
     1    65    64    2
     2    74    73    2
     3    66    64   am
     4    64    63    1
     5    73    72    1
     6    58    59    1
     7    59    62    1
     8    59    60    1
     9    75    72    1
    10    75    76    1
    11    48    49    2
    12    48    47    1
    13    72    71    1
    14    63    62    1
    15    61    60    2
    16    60    67   am
    17    71    69   am
    18    50    47    1
    19    50    51    1
    20    77    76    1
    21    35    36    1
    22    79    80    1
    23    47    46    1
    24    76    78    1
    25    67    68    1
    26    46    37   am
    27    69    70    2
    28    69    68    1
    29    82    81    2
    30   117   116    1
    31    37    38    2
    32    37    36    1
    33    16    15    2
    34    51    53   ar
    35    51    52   ar
    36   116   118    1
    37   116   113    1
    38    36    39    1
    39    80    83    1
    40    80    81    1
    41    85    83    1
    42    15    14    1
    43    83    84    1
    44    53    55   ar
    45    13    14    1
    46    14    17    1
    47    52    54   ar
    48   115   114    2
    49    39    40    1
    50   113   114    1
    51   113   112    1
    52   112   106   am
    53    55    56   ar
    54    54    56   ar
    55    17    18    1
    56    17    19    1
    57    40    42   ar
    58    40    41   ar
    59    56    57    1
    60   106   105    1
    61   106   107    2
    62    42    44   ar
    63     4     3    2
    64   108   105    1
    65   108   109    1
    66   105   104    1
    67    41    43   ar
    68     2     3    1
    69     2     1    1
    70     2     5    1
    71   109   110    1
    72    44    45   ar
    73     7     9   ar
    74     7     6   ar
    75     9    11   ar
    76    43    45   ar
    77     5     6    1
    78     6     8   ar
    79    11    12    1
    80    11    10   ar
    81   110   111    1
    82   102   101    1
    83     8    10   ar
    84    99    98    1
    85    99   100    2
    86   101    98    1
    87   101   103    1
    88    98    97    1
    89   149   148    1
    90    27    25   ar
    91    23    22    2
    92    25    24    1
    93    25    26   ar
    94    24    21    1
    95   146   147    1
    96   146   143    1
    97   147   148    1
    98    95    93   ar
    99    95    96   ar
   100    93    91   ar
   101   141   139   ar
   102    22    21    1
   103    22    28   am
   104    96    94   ar
   105   142   143    1
   106    21    20    1
   107   143   144    1
   108   166   168   ar
   109   166   164   ar
   110   126   124    1
   111    91    90    1
   112    91    92   ar
   113   119   120    1
   114   145   144    2
   115   175   174    1
   116   168   167   ar
   117   123   120    1
   118   123   124    1
   119   139   140   ar
   120   139   138    1
   121    34    28    1
   122    34    33    1
   123    90    87    1
   124    28    29    1
   125    94    92   ar
   126   122   121    2
   127   164   163   ar
   128   164   162   ar
   129   163   161   ar
   130   120   121    1
   131   124   125    1
   132   154   151    1
   133   176   174    1
   134   133   131    1
   135   138   135    1
   136   174   173    1
   137   167   165   ar
   138    88    87    1
   139    88    89    2
   140    87    86    1
   141    29    32    1
   142    29    30    1
   143    33    32    1
   144   131   132    1
   145   131   128    1
   146   161   160   ar
   147   162   165   ar
   148   162   160   ar
   149   150   151    1
   150    31    30    2
   151   151   152    1
   152   173   170    1
   153   160   159    1
   154   135   134    1
   155   135   136    1
   156   170   171    1
   157   170   169    1
   158   127   128    1
   159   171   172    2
   160   128   129    1
   161   136   137    2
   162   152   153    2
   163   129   130    2
   164   159   156    1
   165   158   157    2
   166   156   157    1
   167   156   155    1
