@<TRIPOS>MOLECULE
tmp/1e3wD01.pdb
 95 89 0 0 0
SMALL
GASTEIGER

@<TRIPOS>ATOM
      1  N         11.1260   51.7480   34.8660 N.3    89  ALA89      -0.1245
      2  CA        11.1850   50.5520   34.0100 C.3    89  ALA89       0.1562
      3  C         10.6780   50.9460   32.6230 C.2    89  ALA89       0.2260
      4  O          9.9030   51.8810   32.4920 O.2    89  ALA89      -0.2867
      5  CB        10.2650   49.4580   34.5140 C.3    89  ALA89       0.0290
      6  N         16.2800   43.5600   41.3560 N.3   149  SER149     -0.1217
      7  CA        15.1170   42.9600   40.7950 C.3   149  SER149      0.1889
      8  C         15.5280   41.5180   40.3580 C.2   149  SER149      0.2288
      9  O         16.7170   41.3610   40.1100 O.2   149  SER149     -0.2866
     10  CB        14.6870   43.6510   39.4750 C.3   149  SER149      0.2089
     11  OG        13.7030   42.9220   38.7480 O.3   149  SER149     -0.2183
     12  N         13.7480   39.5230   31.1510 N.3   156  GLN156     -0.1245
     13  CA        12.8680   39.0680   30.1070 C.3   156  GLN156      0.1566
     14  C         13.0890   39.7960   28.7420 C.2   156  GLN156      0.2260
     15  O         13.8710   40.7420   28.7030 O.2   156  GLN156     -0.2867
     16  CB        11.4140   39.3540   30.5180 C.3   156  GLN156      0.0367
     17  CG        11.0780   38.5750   31.8020 C.3   156  GLN156      0.0905
     18  CD         9.5850   38.6580   32.0250 C.2   156  GLN156      0.2608
     19  OE1        9.0690   39.7700   32.3520 O.2   156  GLN156     -0.2717
     20  NE2        8.8380   37.5940   31.8310 N.am  156  GLN156     -0.0878
     21  N         13.6880   43.6950   28.4970 N.3   159  GLN159     -0.1245
     22  CA        14.2340   44.2460   29.7170 C.3   159  GLN159      0.1566
     23  C         15.7240   44.4850   29.7220 C.2   159  GLN159      0.2260
     24  O         16.3650   44.5970   30.7590 O.2   159  GLN159     -0.2867
     25  CB        13.9520   43.2630   30.8820 C.3   159  GLN159      0.0367
     26  CG        12.5210   43.2490   31.3230 C.3   159  GLN159      0.0905
     27  CD        12.4180   42.6800   32.7470 C.2   159  GLN159      0.2608
     28  OE1       12.7940   41.5380   32.9150 O.2   159  GLN159     -0.2717
     29  NE2       11.7190   43.3550   33.6870 N.am  159  GLN159     -0.0878
     30  N         16.5840   47.7050   31.8540 N.3   162  TYR162     -0.1241
     31  CA        16.2370   47.4740   33.2580 C.3   162  TYR162      0.1605
     32  C         17.2240   46.4170   33.8930 C.2   162  TYR162      0.2264
     33  O         17.8300   46.6730   34.9420 O.2   162  TYR162     -0.2867
     34  CB        14.7470   47.0790   33.2580 C.3   162  TYR162      0.0534
     35  CG        14.1980   46.9950   34.6930 C.ar  162  TYR162     -0.0201
     36  CD1       13.9170   48.1600   35.3980 C.ar  162  TYR162     -0.0009
     37  CD2       13.9920   45.7650   35.2690 C.ar  162  TYR162     -0.0009
     38  CE1       13.3990   48.0940   36.6630 C.ar  162  TYR162      0.0417
     39  CE2       13.4610   45.7140   36.5540 C.ar  162  TYR162      0.0417
     40  CZ        13.1360   46.8760   37.2050 C.ar  162  TYR162      0.1957
     41  OH        12.5480   46.8570   38.4550 O.3   162  TYR162     -0.2866
     42  N         10.5600   40.1410   43.0800 N.3   193  GLY193     -0.1210
     43  CA        10.0510   39.5900   41.8740 C.3   193  GLY193      0.1956
     44  C          8.9590   40.5470   41.2910 C.2   193  GLY193      0.2612
     45  O          9.4620   41.2800   40.3950 O.2   193  GLY193     -0.2717
     46  N          7.7480   40.1510   41.3520 N.am  194  LEU194     -0.1965
     47  CA         6.6590   40.9660   40.7740 C.3   194  LEU194      0.1728
     48  C          5.7590   41.4700   41.9390 C.2   194  LEU194      0.2616
     49  O          5.2620   40.5910   42.6750 O.2   194  LEU194     -0.2715
     50  CB         5.7890   40.1610   39.8500 C.3   194  LEU194      0.0311
     51  CG         6.5440   39.5140   38.6410 C.3   194  LEU194      0.0022
     52  CD1        5.6100   38.5610   37.8850 C.3   194  LEU194      0.0001
     53  CD2        7.0140   40.6780   37.7770 C.3   194  LEU194      0.0001
     54  N          5.6400   42.7660   42.0840 N.am  195  PHE195     -0.1974
     55  CA         4.8980   43.3690   43.2130 C.3   195  PHE195      0.1639
     56  C          3.7260   44.2110   42.6900 C.2   195  PHE195      0.2290
     57  O          3.8870   44.8050   41.6100 O.2   195  PHE195     -0.2864
     58  CB         5.8680   44.2040   44.0800 C.3   195  PHE195      0.0560
     59  CG         6.5170   43.3500   45.1600 C.ar  195  PHE195     -0.0200
     60  CD1        7.5470   42.4720   44.8130 C.ar  195  PHE195     -0.0042
     61  CD2        6.0630   43.3940   46.4610 C.ar  195  PHE195     -0.0042
     62  CE1        8.0840   41.6020   45.8140 C.ar  195  PHE195     -0.0003
     63  CE2        6.6370   42.6140   47.4610 C.ar  195  PHE195     -0.0003
     64  CZ         7.5970   41.6740   47.0960 C.ar  195  PHE195     -0.0000
     65  N          4.2690   50.6520   39.3190 N.3   199  LEU199     -0.1231
     66  CA         5.2200   50.3020   38.2930 C.3   199  LEU199      0.1693
     67  C          4.6350   49.2750   37.3330 C.2   199  LEU199      0.2591
     68  O          5.0320   49.3370   36.1470 O.2   199  LEU199     -0.2718
     69  CB         6.5320   49.7770   38.8980 C.3   199  LEU199      0.0284
     70  CG         7.7020   49.6500   37.9180 C.3   199  LEU199      0.0019
     71  CD1        8.2770   51.0380   37.6080 C.3   199  LEU199      0.0001
     72  CD2        8.7620   48.7750   38.5610 C.3   199  LEU199      0.0001
     73  N          3.7100   48.3810   37.6660 N.am  200  LEU200     -0.1980
     74  CA         3.2150   47.3870   36.7130 C.3   200  LEU200      0.1596
     75  C          2.6090   47.8170   35.3800 C.2   200  LEU200      0.2287
     76  O          2.5520   46.9750   34.4270 O.2   200  LEU200     -0.2864
     77  CB         2.1160   46.4990   37.2940 C.3   200  LEU200      0.0297
     78  CG         2.4150   45.5810   38.4850 C.3   200  LEU200      0.0022
     79  CD1        1.0880   45.0340   38.9660 C.3   200  LEU200      0.0001
     80  CD2        3.3790   44.4750   38.1150 C.3   200  LEU200      0.0001
     81  N          4.0010   49.0040   33.0240 N.3   202  THR202     -0.1203
     82  CA         5.0300   48.7640   32.0590 C.3   202  THR202      0.1994
     83  C          4.8400   47.5160   31.2040 C.2   202  THR202      0.2617
     84  O          5.3430   47.5010   30.0660 O.2   202  THR202     -0.2717
     85  CB         6.4470   48.6120   32.6700 C.3   202  THR202      0.1784
     86  OG1        6.4890   47.5660   33.6480 O.3   202  THR202     -0.2211
     87  CG2        6.8710   49.9050   33.3500 C.3   202  THR202      0.0376
     88  N          4.2460   46.4800   31.7760 N.am  203  LEU203     -0.1979
     89  CA         4.0330   45.2290   31.0380 C.3   203  LEU203      0.1596
     90  C          2.9090   45.4270   30.0280 C.2   203  LEU203      0.2287
     91  O          2.0580   46.3200   30.1340 O.2   203  LEU203     -0.2864
     92  CB         3.7920   44.0970   32.0370 C.3   203  LEU203      0.0297
     93  CG         4.6880   43.6600   32.9060 C.3   203  LEU203      0.0022
     94  CD1        4.2430   42.7350   34.0310 C.3   203  LEU203      0.0001
     95  CD2        5.7090   42.8850   32.0790 C.3   203  LEU203      0.0001
@<TRIPOS>BOND
     1    21    22    1
     2    15    14    2
     3    14    13    1
     4    22    23    1
     5    22    25    1
     6    23    24    2
     7    90    91    2
     8    90    89    1
     9    84    83    2
    10    13    16    1
    11    13    12    1
    12    16    17    1
    13    25    26    1
    14    89    88    1
    15    89    92    1
    16    83    88   am
    17    83    82    1
    18    26    27    1
    19    17    18    1
    20    20    18   am
    21    30    31    1
    22    18    19    2
    23    92    93    1
    24    82    85    1
    25    82    81    1
    26    95    93    1
    27     4     3    2
    28     3     2    1
    29    85    87    1
    30    85    86    1
    31    27    28    2
    32    27    29   am
    33    93    94    1
    34    34    31    1
    35    34    35    1
    36    31    32    1
    37    32    33    2
    38     2     5    1
    39     2     1    1
    40    76    75    2
    41    35    37   ar
    42    35    36   ar
    43    37    39   ar
    44    75    74    1
    45    36    38   ar
    46    68    67    2
    47    39    40   ar
    48    38    40   ar
    49    74    77    1
    50    74    73    1
    51    40    41    1
    52    77    78    1
    53    67    73   am
    54    67    66    1
    55    71    70    1
    56    53    51    1
    57    52    51    1
    58    70    72    1
    59    70    69    1
    60    80    78    1
    61    66    69    1
    62    66    65    1
    63    78    79    1
    64    51    50    1
    65    11    10    1
    66    10     7    1
    67    50    47    1
    68     9     8    2
    69     8     7    1
    70    45    44    2
    71    47    46    1
    72    47    48    1
    73     7     6    1
    74    44    46   am
    75    44    43    1
    76    57    56    2
    77    43    42    1
    78    48    54   am
    79    48    49    2
    80    54    55    1
    81    56    55    1
    82    55    58    1
    83    58    59    1
    84    60    59   ar
    85    60    62   ar
    86    59    61   ar
    87    62    64   ar
    88    61    63   ar
    89    64    63   ar
