@<TRIPOS>MOLECULE
tmp/1e3zA02.pdb
 175 170 0 0 0
SMALL
GASTEIGER

@<TRIPOS>ATOM
      1  N         25.7370   35.9170   22.6020 N.3    11  TRP11      -0.1241
      2  CA        26.8920   36.4810   23.3220 C.3    11  TRP11       0.1605
      3  C         27.2730   37.8870   22.8980 C.2    11  TRP11       0.2264
      4  O         27.6670   38.7160   23.7710 O.2    11  TRP11      -0.2867
      5  CB        28.0920   35.5130   23.2100 C.3    11  TRP11       0.0550
      6  CG        29.1970   35.9450   24.1640 C.ar   11  TRP11       0.0003
      7  CD1       30.2640   36.7430   23.8790 C.ar   11  TRP11       0.0946
      8  CD2       29.2550   35.6440   25.5620 C.ar   11  TRP11       0.0152
      9  NE1       31.0230   36.9080   25.0210 N.ar   11  TRP11      -0.2442
     10  CE2       30.4190   36.2560   26.0650 C.ar   11  TRP11       0.0810
     11  CE3       28.4450   34.9040   26.4220 C.ar   11  TRP11       0.0012
     12  CZ2       30.8010   36.1510   27.4080 C.ar   11  TRP11       0.0191
     13  CZ3       28.8110   34.7960   27.7650 C.ar   11  TRP11       0.0001
     14  CH2       29.9880   35.4120   28.2380 C.ar   11  TRP11       0.0015
     15  N         29.6340   43.8730   30.8080 N.3    51  ASP51      -0.1239
     16  CA        29.5820   42.4610   31.1960 C.3    51  ASP51       0.1674
     17  C         28.2380   41.8820   30.7510 C.2    51  ASP51       0.2266
     18  O         27.2450   42.6140   30.9230 O.2    51  ASP51      -0.2867
     19  CB        29.7120   42.3260   32.7160 C.3    51  ASP51       0.1410
     20  CG        29.9690   40.8610   33.0980 C.2    51  ASP51       0.3668
     21  OD1       31.1030   40.3850   32.9980 O.co2  51  ASP51      -0.2456
     22  OD2       29.0070   40.1920   33.4880 O.co2  51  ASP51      -0.2456
     23  N         27.1850   37.4940   33.6050 N.3    54  TYR54      -0.1241
     24  CA        27.6900   36.2870   34.2420 C.3    54  TYR54       0.1605
     25  C         28.8600   36.6070   35.1700 C.2    54  TYR54       0.2264
     26  O         29.3670   35.6770   35.8050 O.2    54  TYR54      -0.2867
     27  CB        28.0010   35.1670   33.2200 C.3    54  TYR54       0.0534
     28  CG        26.7070   34.7310   32.5140 C.ar   54  TYR54      -0.0201
     29  CD1       25.7260   33.9920   33.1640 C.ar   54  TYR54      -0.0009
     30  CD2       26.4720   35.1240   31.2090 C.ar   54  TYR54      -0.0009
     31  CE1       24.5410   33.6230   32.5200 C.ar   54  TYR54       0.0417
     32  CE2       25.3020   34.7710   30.5490 C.ar   54  TYR54       0.0417
     33  CZ        24.3510   34.0250   31.2080 C.ar   54  TYR54       0.1957
     34  OH        23.1910   33.6950   30.5290 O.3    54  TYR54      -0.2866
     35  N         22.0520   33.9190   38.4730 N.3   100  VAL100     -0.1245
     36  CA        23.4650   33.5690   38.5920 C.3   100  VAL100      0.1561
     37  C         23.8730   33.6540   40.0660 C.2   100  VAL100      0.2260
     38  O         24.1070   34.7550   40.5850 O.2   100  VAL100     -0.2867
     39  CB        24.3320   34.5150   37.7230 C.3   100  VAL100      0.0252
     40  CG1       25.8040   34.0800   37.8170 C.3   100  VAL100      0.0019
     41  CG2       23.8400   34.4890   36.2710 C.3   100  VAL100      0.0019
     42  N         28.5900   32.4480   42.1260 N.3   103  HIS103     -0.1241
     43  CA        29.6970   33.3110   42.5180 C.3   103  HIS103      0.1621
     44  C         29.3300   34.7850   42.4550 C.2   103  HIS103      0.2264
     45  O         28.2980   35.1290   41.8870 O.2   103  HIS103     -0.2867
     46  CB        30.8580   33.0580   41.4950 C.3   103  HIS103      0.0745
     47  CG        30.4310   33.1900   40.0550 C.ar  103  HIS103      0.0817
     48  ND1       30.0020   32.1260   39.2890 N.ar  103  HIS103     -0.2268
     49  CD2       30.3800   34.2830   39.2470 C.ar  103  HIS103      0.1154
     50  CE1       29.6820   32.5600   38.0660 C.ar  103  HIS103      0.1986
     51  NE2       29.9070   33.8850   38.0190 N.ar  103  HIS103     -0.2212
     52  N         40.1090   32.4210   43.1630 N.3   162  ASP162     -0.1239
     53  CA        41.2270   31.9100   42.3510 C.3   162  ASP162      0.1674
     54  C         42.2710   32.9800   42.0810 C.2   162  ASP162      0.2266
     55  O         43.0480   32.8520   41.1250 O.2   162  ASP162     -0.2867
     56  CB        40.6950   31.3390   41.0340 C.3   162  ASP162      0.1410
     57  CG        39.9930   32.3350   40.1340 C.2   162  ASP162      0.3668
     58  OD1       39.7570   33.5030   40.5330 O.co2 162  ASP162     -0.2456
     59  OD2       39.6280   31.9290   38.9950 O.co2 162  ASP162     -0.2456
     60  N         34.2140   27.2680   40.5190 N.3   196  LEU196     -0.1231
     61  CA        34.2320   27.4660   39.0710 C.3   196  LEU196      0.1693
     62  C         35.0490   28.7040   38.7030 C.2   196  LEU196      0.2592
     63  O         36.0080   28.6090   37.9250 O.2   196  LEU196     -0.2718
     64  CB        32.8110   27.5690   38.4750 C.3   196  LEU196      0.0284
     65  CG        32.7390   27.8430   36.9650 C.3   196  LEU196      0.0019
     66  CD1       33.3130   26.6760   36.1670 C.3   196  LEU196      0.0001
     67  CD2       31.2870   28.0880   36.5440 C.3   196  LEU196      0.0001
     68  N         34.6710   29.8570   39.2570 N.am  197  MET197     -0.1965
     69  CA        35.3220   31.1390   38.9650 C.3   197  MET197      0.1736
     70  C         34.9630   32.2290   39.9640 C.2   197  MET197      0.2616
     71  O         34.0600   32.0420   40.7970 O.2   197  MET197     -0.2715
     72  CB        34.8530   31.5930   37.5420 C.3   197  MET197      0.0427
     73  CG        33.3230   31.8270   37.4410 C.3   197  MET197      0.0599
     74  SD        32.8540   32.5160   35.7860 S.3   197  MET197     -0.1393
     75  CE        33.1080   31.0250   34.8190 C.3   197  MET197      0.0692
     76  N         35.6380   33.3740   39.9490 N.am  198  TYR198     -0.1974
     77  CA        35.3440   34.5060   40.8450 C.3   198  TYR198      0.1639
     78  C         35.3040   34.0740   42.3090 C.2   198  TYR198      0.2290
     79  O         36.0910   33.2070   42.6990 O.2   198  TYR198     -0.2864
     80  CB        34.0930   35.2320   40.3510 C.3   198  TYR198      0.0560
     81  CG        34.2240   36.0530   39.0760 C.ar  198  TYR198     -0.0198
     82  CD1       35.0640   37.1420   39.0870 C.ar  198  TYR198     -0.0009
     83  CD2       33.5010   35.7980   37.9120 C.ar  198  TYR198     -0.0009
     84  CE1       35.2340   37.9640   37.9790 C.ar  198  TYR198      0.0417
     85  CE2       33.6400   36.5910   36.7700 C.ar  198  TYR198      0.0417
     86  CZ        34.4950   37.6630   36.8120 C.ar  198  TYR198      0.1957
     87  OH        34.6570   38.5300   35.7570 O.3   198  TYR198     -0.2866
     88  N         15.8220   30.4410   34.8510 N.3   229  ARG229     -0.1245
     89  CA        16.8290   29.5830   34.2240 C.3   229  ARG229      0.1563
     90  C         18.0010   29.5890   35.2270 C.2   229  ARG229      0.2260
     91  O         18.4610   30.7010   35.5440 O.2   229  ARG229     -0.2867
     92  CB        17.2720   30.1740   32.8860 C.3   229  ARG229      0.0307
     93  CG        18.3850   29.3860   32.2080 C.3   229  ARG229      0.0489
     94  CD        19.7720   29.9810   32.4680 C.3   229  ARG229      0.2205
     95  NE        20.8080   29.3030   31.6600 N.pl3 229  ARG229     -0.0865
     96  CZ        22.1110   29.5470   31.8350 C.cat 229  ARG229      0.5346
     97  NH1       22.5060   30.4490   32.7250 N.pl3 229  ARG229      0.1354
     98  NH2       23.0350   28.8890   31.1160 N.pl3 229  ARG229      0.1354
     99  N         21.6890   29.1970   36.3920 N.3   231  ASP231     -0.1225
    100  CA        23.0350   29.1140   35.8340 C.3   231  ASP231      0.1805
    101  C         23.9520   28.1850   36.6280 C.2   231  ASP231      0.2597
    102  O         23.9160   28.2500   37.8560 O.2   231  ASP231     -0.2718
    103  CB        23.6600   30.5300   35.9150 C.3   231  ASP231      0.1424
    104  CG        25.0210   30.6270   35.2410 C.2   231  ASP231      0.3668
    105  OD1       25.0830   30.4150   34.0120 O.co2 231  ASP231     -0.2456
    106  OD2       26.0170   30.9090   35.9240 O.co2 231  ASP231     -0.2456
    107  N         24.7870   27.4500   35.9180 N.am  232  ALA232     -0.1979
    108  CA        25.8700   26.6890   36.5670 C.3   232  ALA232      0.1597
    109  C         25.4130   25.7580   37.6630 C.2   232  ALA232      0.2287
    110  O         26.0460   25.6630   38.7250 O.2   232  ALA232     -0.2864
    111  CB        26.8480   27.7410   37.1170 C.3   232  ALA232      0.0319
    112  N         20.7170   24.6740   34.0720 N.3   261  GLU261     -0.1245
    113  CA        21.7930   24.3640   33.1550 C.3   261  GLU261      0.1567
    114  C         22.7740   23.4270   33.8970 C.2   261  GLU261      0.2260
    115  O         23.5300   23.9000   34.7490 O.2   261  GLU261     -0.2867
    116  CB        22.5530   25.6350   32.7200 C.3   261  GLU261      0.0388
    117  CG        23.6740   25.3210   31.7090 C.3   261  GLU261      0.1160
    118  CD        25.0080   25.9890   32.0110 C.2   261  GLU261      0.3649
    119  OE1       25.2580   26.4460   33.1440 O.co2 261  GLU261     -0.2457
    120  OE2       25.8650   26.0710   31.0920 O.co2 261  GLU261     -0.2457
    121  N         25.6680   21.2710   32.7260 N.3   263  TRP263     -0.1241
    122  CA        26.3750   20.9890   31.4640 C.3   263  TRP263      0.1605
    123  C         27.1710   19.6950   31.4980 C.2   263  TRP263      0.2264
    124  O         28.3200   19.6730   31.9210 O.2   263  TRP263     -0.2867
    125  CB        27.2440   22.1860   31.0100 C.3   263  TRP263      0.0550
    126  CG        27.6360   21.9830   29.5600 C.ar  263  TRP263      0.0003
    127  CD1       28.7210   21.3390   29.0490 C.ar  263  TRP263      0.0946
    128  CD2       26.8360   22.3940   28.4400 C.ar  263  TRP263      0.0152
    129  NE1       28.6710   21.3460   27.6560 N.ar  263  TRP263     -0.2442
    130  CE2       27.5150   21.9860   27.2800 C.ar  263  TRP263      0.0810
    131  CE3       25.6080   23.0550   28.3280 C.ar  263  TRP263      0.0012
    132  CZ2       27.0040   22.2250   25.9970 C.ar  263  TRP263      0.0191
    133  CZ3       25.1040   23.2920   27.0570 C.ar  263  TRP263      0.0001
    134  CH2       25.8060   22.8850   25.9200 C.ar  263  TRP263      0.0015
    135  N         24.1780   30.6280   23.7480 N.3   327  HIS327     -0.1226
    136  CA        25.2150   31.6620   23.8060 C.3   327  HIS327      0.1752
    137  C         26.5790   31.0820   24.1410 C.2   327  HIS327      0.2596
    138  O         27.6140   31.7560   23.9880 O.2   327  HIS327     -0.2718
    139  CB        24.8150   32.7570   24.8400 C.3   327  HIS327      0.0759
    140  CG        24.7360   32.1930   26.2330 C.ar  327  HIS327      0.0818
    141  ND1       23.8120   31.2230   26.5710 N.ar  327  HIS327     -0.2268
    142  CD2       25.4590   32.4250   27.3560 C.ar  327  HIS327      0.1154
    143  CE1       23.9770   30.8670   27.8460 C.ar  327  HIS327      0.1986
    144  NE2       24.9720   31.5960   28.3510 N.ar  327  HIS327     -0.2212
    145  N         26.6150   29.8410   24.6140 N.am  328  ASP328     -0.1974
    146  CA        27.9080   29.2040   24.9210 C.3   328  ASP328      0.1709
    147  C         28.3480   28.3030   23.7670 C.2   328  ASP328      0.2293
    148  O         29.5510   27.9930   23.6850 O.2   328  ASP328     -0.2864
    149  CB        27.8190   28.3290   26.1770 C.3   328  ASP328      0.1436
    150  CG        27.6980   29.0860   27.4950 C.2   328  ASP328      0.3671
    151  OD1       28.1240   30.2540   27.6000 O.co2 328  ASP328     -0.2456
    152  OD2       27.1850   28.4700   28.4520 O.co2 328  ASP328     -0.2456
    153  N         32.7100   30.7910   21.4080 N.3   333  GLN333     -0.1231
    154  CA        32.3990   30.7830   22.8370 C.3   333  GLN333      0.1698
    155  C         32.8660   29.5600   23.5780 C.2   333  GLN333      0.2593
    156  O         33.4500   28.6180   22.9990 O.2   333  GLN333     -0.2718
    157  CB        30.9030   31.1440   23.0180 C.3   333  GLN333      0.0381
    158  CG        30.7010   32.6660   22.8140 C.3   333  GLN333      0.0905
    159  CD        31.5890   33.4860   23.7240 C.2   333  GLN333      0.2608
    160  OE1       31.5330   33.3150   24.9380 O.2   333  GLN333     -0.2717
    161  NE2       32.4560   34.3770   23.2060 N.am  333  GLN333     -0.0878
    162  N         32.7190   29.5790   24.9100 N.am  334  SER334     -0.1938
    163  CA        33.3240   28.5750   25.7780 C.3   334  SER334      0.2055
    164  C         32.9750   27.1160   25.5590 C.2   334  SER334      0.2642
    165  O         33.7510   26.2330   25.9650 O.2   334  SER334     -0.2714
    166  CB        32.9830   28.9340   27.2520 C.3   334  SER334      0.2130
    167  OG        33.5490   30.2310   27.4570 O.3   334  SER334     -0.2179
    168  N         31.7970   26.8280   25.0510 N.am  335  LEU335     -0.1977
    169  CA        31.3510   25.4530   24.8330 C.3   335  LEU335      0.1596
    170  C         31.0990   25.2280   23.3450 C.2   335  LEU335      0.2287
    171  O         30.2590   24.4180   22.9530 O.2   335  LEU335     -0.2864
    172  CB        30.0630   25.1890   25.6450 C.3   335  LEU335      0.0297
    173  CG        30.1740   25.4120   27.1630 C.3   335  LEU335      0.0022
    174  CD1       28.7880   25.3510   27.7960 C.3   335  LEU335      0.0001
    175  CD2       31.1030   24.4260   27.8450 C.3   335  LEU335      0.0001
@<TRIPOS>BOND
     1   153   154    1
     2     1     2    1
     3   158   157    1
     4   158   159    1
     5   154   157    1
     6   154   155    1
     7     3     2    1
     8     3     4    2
     9   171   170    2
    10   156   155    2
    11   161   159   am
    12     5     2    1
    13     5     6    1
    14   170   169    1
    15   155   162   am
    16   148   147    2
    17   159   160    2
    18   135   136    1
    19   147   146    1
    20   136   137    1
    21   136   139    1
    22     7     6   ar
    23     7     9   ar
    24   138   137    2
    25   137   145   am
    26     6     8   ar
    27   145   146    1
    28   169   168    1
    29   169   172    1
    30   139   140    1
    31   162   163    1
    32   146   149    1
    33     9    10   ar
    34   168   164   am
    35   164   163    1
    36   164   165    2
    37     8    10   ar
    38     8    11   ar
    39   172   173    1
    40   163   166    1
    41   134   132   ar
    42   134   133   ar
    43   132   130   ar
    44    10    12   ar
    45   149   150    1
    46   140   141   ar
    47   140   142   ar
    48    11    13   ar
    49   141   143   ar
    50   133   131   ar
    51   173   174    1
    52   173   175    1
    53   166   167    1
    54   130   129   ar
    55   130   128   ar
    56   142   144   ar
    57    12    14   ar
    58   150   151   ar
    59   150   152   ar
    60   129   127   ar
    61    13    14   ar
    62   143   144   ar
    63   131   128   ar
    64   128   126   ar
    65   127   126   ar
    66   126   125    1
    67    34    33    1
    68    32    33   ar
    69    32    30   ar
    70    17    18    2
    71    17    16    1
    72    15    16    1
    73   125   122    1
    74   120   118   ar
    75    98    96    1
    76    16    19    1
    77    33    31   ar
    78    30    28   ar
    79   122   123    1
    80   122   121    1
    81   123   124    2
    82    95    96    2
    83    95    94    1
    84   117   118    1
    85   117   116    1
    86    96    97    1
    87   118   119   ar
    88    93    94    1
    89    93    92    1
    90    28    29   ar
    91    28    27    1
    92    31    29   ar
    93    19    20    1
    94   116   113    1
    95    92    89    1
    96    21    20   ar
    97    20    22   ar
    98   113   114    1
    99   113   112    1
   100    27    24    1
   101    23    24    1
   102   114   115    2
   103   105   104   ar
   104    89    88    1
   105    89    90    1
   106    24    25    1
   107    75    74    1
   108    25    26    2
   109    90    91    2
   110   104   103    1
   111   104   106   ar
   112    87    86    1
   113    74    73    1
   114   100   103    1
   115   100    99    1
   116   100   101    1
   117   107   108    1
   118   107   101   am
   119    66    65    1
   120    41    39    1
   121    67    65    1
   122   108   111    1
   123   108   109    1
   124   101   102    2
   125    85    86   ar
   126    85    83   ar
   127    86    84   ar
   128    65    64    1
   129    73    72    1
   130    72    69    1
   131   109   110    2
   132    39    40    1
   133    39    36    1
   134    83    81   ar
   135    63    62    2
   136    84    82   ar
   137    51    50   ar
   138    51    49   ar
   139    50    48   ar
   140    35    36    1
   141    64    61    1
   142    36    37    1
   143    62    61    1
   144    62    68   am
   145    69    68    1
   146    69    70    1
   147    59    57   ar
   148    61    60    1
   149    81    82   ar
   150    81    80    1
   151    49    47   ar
   152    48    47   ar
   153    76    70   am
   154    76    77    1
   155    70    71    2
   156    47    46    1
   157    37    38    2
   158    57    58   ar
   159    57    56    1
   160    80    77    1
   161    77    78    1
   162    56    53    1
   163    55    54    2
   164    46    43    1
   165    45    44    2
   166    54    53    1
   167    42    43    1
   168    78    79    2
   169    53    52    1
   170    44    43    1
