@<TRIPOS>MOLECULE
tmp/1e3zA03.pdb
 142 137 0 0 0
SMALL
GASTEIGER

@<TRIPOS>ATOM
      1  N         32.8810   15.7100   39.3150 N.3   189  GLU189     -0.1245
      2  CA        33.9550   15.9220   38.3320 C.3   189  GLU189      0.1567
      3  C         35.0560   16.7360   39.0150 C.2   189  GLU189      0.2260
      4  O         34.7340   17.6450   39.7900 O.2   189  GLU189     -0.2867
      5  CB        33.4560   16.7480   37.1740 C.3   189  GLU189      0.0388
      6  CG        32.3950   16.1170   36.2940 C.3   189  GLU189      0.1160
      7  CD        31.8000   17.2620   35.4710 C.2   189  GLU189      0.3649
      8  OE1       32.3670   17.5660   34.4030 O.co2 189  GLU189     -0.2457
      9  OE2       30.8170   17.8600   35.9350 O.co2 189  GLU189     -0.2457
     10  N         33.2490   19.7500   42.1500 N.3   193  TYR193     -0.1241
     11  CA        33.2720   20.8980   41.2370 C.3   193  TYR193      0.1605
     12  C         32.5160   22.0990   41.8100 C.2   193  TYR193      0.2264
     13  O         31.9350   22.8940   41.0610 O.2   193  TYR193     -0.2867
     14  CB        32.6970   20.4140   39.8920 C.3   193  TYR193      0.0534
     15  CG        33.2670   21.0420   38.6370 C.ar  193  TYR193     -0.0201
     16  CD1       34.0060   22.1980   38.6470 C.ar  193  TYR193     -0.0009
     17  CD2       32.9880   20.4320   37.4000 C.ar  193  TYR193     -0.0009
     18  CE1       34.5310   22.7510   37.4860 C.ar  193  TYR193      0.0417
     19  CE2       33.5160   20.9650   36.2270 C.ar  193  TYR193      0.0417
     20  CZ        34.2760   22.0980   36.2800 C.ar  193  TYR193      0.1957
     21  OH        34.7730   22.6710   35.1340 O.3   193  TYR193     -0.2866
     22  N         34.2140   27.2680   40.5190 N.3   196  LEU196     -0.1231
     23  CA        34.2320   27.4660   39.0710 C.3   196  LEU196      0.1693
     24  C         35.0490   28.7040   38.7030 C.2   196  LEU196      0.2591
     25  O         36.0080   28.6090   37.9250 O.2   196  LEU196     -0.2718
     26  CB        32.8110   27.5690   38.4750 C.3   196  LEU196      0.0284
     27  CG        32.7390   27.8430   36.9650 C.3   196  LEU196      0.0019
     28  CD1       33.3130   26.6760   36.1670 C.3   196  LEU196      0.0001
     29  CD2       31.2870   28.0880   36.5440 C.3   196  LEU196      0.0001
     30  N         34.6710   29.8570   39.2570 N.am  197  MET197     -0.1979
     31  CA        35.3220   31.1390   38.9650 C.3   197  MET197      0.1605
     32  C         34.9630   32.2290   39.9640 C.2   197  MET197      0.2287
     33  O         34.0600   32.0420   40.7970 O.2   197  MET197     -0.2864
     34  CB        34.8530   31.5930   37.5420 C.3   197  MET197      0.0413
     35  CG        33.3230   31.8270   37.4410 C.3   197  MET197      0.0598
     36  SD        32.8540   32.5160   35.7860 S.3   197  MET197     -0.1393
     37  CE        33.1080   31.0250   34.8190 C.3   197  MET197      0.0692
     38  N         21.6890   29.1970   36.3920 N.3   231  ASP231     -0.1225
     39  CA        23.0350   29.1140   35.8340 C.3   231  ASP231      0.1805
     40  C         23.9520   28.1850   36.6280 C.2   231  ASP231      0.2597
     41  O         23.9160   28.2500   37.8560 O.2   231  ASP231     -0.2718
     42  CB        23.6600   30.5300   35.9150 C.3   231  ASP231      0.1424
     43  CG        25.0210   30.6270   35.2410 C.2   231  ASP231      0.3668
     44  OD1       25.0830   30.4150   34.0120 O.co2 231  ASP231     -0.2456
     45  OD2       26.0170   30.9090   35.9240 O.co2 231  ASP231     -0.2456
     46  N         24.7870   27.4500   35.9180 N.am  232  ALA232     -0.1979
     47  CA        25.8700   26.6890   36.5670 C.3   232  ALA232      0.1597
     48  C         25.4130   25.7580   37.6630 C.2   232  ALA232      0.2287
     49  O         26.0460   25.6630   38.7250 O.2   232  ALA232     -0.2864
     50  CB        26.8480   27.7410   37.1170 C.3   232  ALA232      0.0319
     51  N         25.6270   22.5540   38.1380 N.3   234  LYS234     -0.1231
     52  CA        26.5370   21.5140   38.6000 C.3   234  LYS234      0.1693
     53  C         27.4420   21.9990   39.7350 C.2   234  LYS234      0.2592
     54  O         28.1390   21.1930   40.3410 O.2   234  LYS234     -0.2718
     55  CB        27.5900   21.1730   37.5150 C.3   234  LYS234      0.0285
     56  CG        27.2100   20.4650   36.2590 C.3   234  LYS234      0.0035
     57  CD        28.3410   20.5770   35.2250 C.3   234  LYS234      0.0206
     58  CE        29.3890   19.4950   35.3530 C.3   234  LYS234      0.1093
     59  NZ        30.1840   19.3380   34.0760 N.3   234  LYS234     -0.1314
     60  N         27.5640   23.3020   39.9240 N.am  235  HIS235     -0.1976
     61  CA        28.5000   23.9010   40.8720 C.3   235  HIS235      0.1656
     62  C         27.8500   24.4760   42.1310 C.2   235  HIS235      0.2291
     63  O         28.5360   25.1550   42.9030 O.2   235  HIS235     -0.2864
     64  CB        29.2580   25.0470   40.1520 C.3   235  HIS235      0.0771
     65  CG        29.7630   24.6020   38.8040 C.ar  235  HIS235      0.0820
     66  ND1       30.8490   23.7700   38.6630 N.ar  235  HIS235     -0.2267
     67  CD2       29.2820   24.8560   37.5500 C.ar  235  HIS235      0.1154
     68  CE1       31.0290   23.5220   37.3670 C.ar  235  HIS235      0.1986
     69  NE2       30.1150   24.1920   36.6800 N.ar  235  HIS235     -0.2212
     70  N         20.7170   24.6740   34.0720 N.3   261  GLU261     -0.1245
     71  CA        21.7930   24.3640   33.1550 C.3   261  GLU261      0.1567
     72  C         22.7740   23.4270   33.8970 C.2   261  GLU261      0.2260
     73  O         23.5300   23.9000   34.7490 O.2   261  GLU261     -0.2867
     74  CB        22.5530   25.6350   32.7200 C.3   261  GLU261      0.0388
     75  CG        23.6740   25.3210   31.7090 C.3   261  GLU261      0.1160
     76  CD        25.0080   25.9890   32.0110 C.2   261  GLU261      0.3649
     77  OE1       25.2580   26.4460   33.1440 O.co2 261  GLU261     -0.2457
     78  OE2       25.8650   26.0710   31.0920 O.co2 261  GLU261     -0.2457
     79  N         25.6680   21.2710   32.7260 N.3   263  TRP263     -0.1227
     80  CA        26.3750   20.9890   31.4640 C.3   263  TRP263      0.1737
     81  C         27.1710   19.6950   31.4980 C.2   263  TRP263      0.2595
     82  O         28.3200   19.6730   31.9210 O.2   263  TRP263     -0.2718
     83  CB        27.2440   22.1860   31.0100 C.3   263  TRP263      0.0564
     84  CG        27.6360   21.9830   29.5600 C.ar  263  TRP263      0.0003
     85  CD1       28.7210   21.3390   29.0490 C.ar  263  TRP263      0.0946
     86  CD2       26.8360   22.3940   28.4400 C.ar  263  TRP263      0.0152
     87  NE1       28.6710   21.3460   27.6560 N.ar  263  TRP263     -0.2442
     88  CE2       27.5150   21.9860   27.2800 C.ar  263  TRP263      0.0810
     89  CE3       25.6080   23.0550   28.3280 C.ar  263  TRP263      0.0012
     90  CZ2       27.0040   22.2250   25.9970 C.ar  263  TRP263      0.0191
     91  CZ3       25.1040   23.2920   27.0570 C.ar  263  TRP263      0.0001
     92  CH2       25.8060   22.8850   25.9200 C.ar  263  TRP263      0.0015
     93  N         26.5870   18.6180   30.9750 N.am  264  GLN264     -0.1965
     94  CA        27.2810   17.3350   30.9400 C.3   264  GLN264      0.1733
     95  C         26.6640   16.4510   29.8650 C.2   264  GLN264      0.2616
     96  O         25.4490   16.3410   29.7750 O.2   264  GLN264     -0.2715
     97  CB        27.1410   16.6500   32.3030 C.3   264  GLN264      0.0408
     98  CG        28.1500   15.4880   32.4240 C.3   264  GLN264      0.0908
     99  CD        28.6270   15.4890   33.8590 C.2   264  GLN264      0.2608
    100  OE1       28.1970   14.6440   34.6450 O.2   264  GLN264     -0.2717
    101  NE2       29.4630   16.4490   34.1940 N.am  264  GLN264     -0.0878
    102  N         27.5070   15.8800   29.0160 N.am  265  ASN265     -0.1972
    103  CA        26.9810   15.0160   27.9430 C.3   265  ASN265      0.1688
    104  C         26.8530   13.5940   28.4720 C.2   265  ASN265      0.2292
    105  O         27.5250   12.6640   28.0190 O.2   265  ASN265     -0.2864
    106  CB        27.9150   15.1540   26.7390 C.3   265  ASN265      0.1181
    107  CG        27.4240   14.3840   25.5310 C.2   265  ASN265      0.2629
    108  OD1       26.2360   14.0820   25.4650 O.2   265  ASN265     -0.2716
    109  ND2       28.3420   14.0760   24.6230 N.am  265  ASN265     -0.0877
    110  N         24.4370   17.4820   21.4840 N.3   290  PHE290     -0.1241
    111  CA        25.6130   16.8180   20.9100 C.3   290  PHE290      0.1605
    112  C         25.2580   15.7810   19.8420 C.2   290  PHE290      0.2264
    113  O         26.0380   15.6610   18.8760 O.2   290  PHE290     -0.2867
    114  CB        26.5380   16.1940   21.9790 C.3   290  PHE290      0.0534
    115  CG        27.3260   17.2760   22.6870 C.ar  290  PHE290     -0.0203
    116  CD1       28.3600   17.9450   22.0380 C.ar  290  PHE290     -0.0042
    117  CD2       27.0020   17.6500   23.9740 C.ar  290  PHE290     -0.0042
    118  CE1       29.0620   18.9610   22.6650 C.ar  290  PHE290     -0.0003
    119  CE2       27.7060   18.6500   24.6100 C.ar  290  PHE290     -0.0003
    120  CZ        28.7510   19.3200   23.9690 C.ar  290  PHE290     -0.0000
    121  N         26.6150   29.8410   24.6140 N.3   328  ASP328     -0.1239
    122  CA        27.9080   29.2040   24.9210 C.3   328  ASP328      0.1674
    123  C         28.3480   28.3030   23.7670 C.2   328  ASP328      0.2266
    124  O         29.5510   27.9930   23.6850 O.2   328  ASP328     -0.2867
    125  CB        27.8190   28.3290   26.1770 C.3   328  ASP328      0.1410
    126  CG        27.6980   29.0860   27.4950 C.2   328  ASP328      0.3668
    127  OD1       28.1240   30.2540   27.6000 O.co2 328  ASP328     -0.2456
    128  OD2       27.1850   28.4700   28.4520 O.co2 328  ASP328     -0.2456
    129  N         32.7190   29.5790   24.9100 N.3   334  SER334     -0.1202
    130  CA        33.3240   28.5750   25.7780 C.3   334  SER334      0.2020
    131  C         32.9750   27.1160   25.5590 C.2   334  SER334      0.2618
    132  O         33.7510   26.2330   25.9650 O.2   334  SER334     -0.2717
    133  CB        32.9830   28.9340   27.2520 C.3   334  SER334      0.2103
    134  OG        33.5490   30.2310   27.4570 O.3   334  SER334     -0.2182
    135  N         31.7970   26.8280   25.0510 N.am  335  LEU335     -0.1979
    136  CA        31.3510   25.4530   24.8330 C.3   335  LEU335      0.1596
    137  C         31.0990   25.2280   23.3450 C.2   335  LEU335      0.2287
    138  O         30.2590   24.4180   22.9530 O.2   335  LEU335     -0.2864
    139  CB        30.0630   25.1890   25.6450 C.3   335  LEU335      0.0297
    140  CG        30.1740   25.4120   27.1630 C.3   335  LEU335      0.0022
    141  CD1       28.7880   25.3510   27.7960 C.3   335  LEU335      0.0001
    142  CD2       31.1030   24.4260   27.8450 C.3   335  LEU335      0.0001
@<TRIPOS>BOND
     1   113   112    2
     2   112   111    1
     3   111   110    1
     4   111   114    1
     5   114   115    1
     6   116   118   ar
     7   116   115   ar
     8   118   120   ar
     9   115   117   ar
    10   138   137    2
    11   137   136    1
    12   124   123    2
    13   123   122    1
    14   120   119   ar
    15   117   119   ar
    16   121   122    1
    17   109   107   am
    18   136   135    1
    19   136   139    1
    20   129   130    1
    21   122   125    1
    22   135   131   am
    23   108   107    2
    24   107   106    1
    25   131   130    1
    26   131   132    2
    27   139   140    1
    28   130   133    1
    29    92    90   ar
    30    92    91   ar
    31    90    88   ar
    32   125   126    1
    33   106   103    1
    34    91    89   ar
    35   140   141    1
    36   140   142    1
    37   133   134    1
    38    88    87   ar
    39    88    86   ar
    40   126   127   ar
    41   126   128   ar
    42    87    85   ar
    43   103   104    1
    44   103   102    1
    45   105   104    2
    46    89    86   ar
    47    86    84   ar
    48   102    95   am
    49    85    84   ar
    50    84    83    1
    51    96    95    2
    52    95    94    1
    53    94    93    1
    54    94    97    1
    55    93    81   am
    56    83    80    1
    57    78    76   ar
    58    80    81    1
    59    80    79    1
    60    81    82    2
    61    75    76    1
    62    75    74    1
    63    76    77   ar
    64    97    98    1
    65    98    99    1
    66    74    71    1
    67    71    72    1
    68    71    70    1
    69    99   101   am
    70    99   100    2
    71    72    73    2
    72    44    43   ar
    73    59    58    1
    74     8     7   ar
    75    37    36    1
    76    21    20    1
    77    57    58    1
    78    57    56    1
    79    43    42    1
    80    43    45   ar
    81     7     9   ar
    82     7     6    1
    83    36    35    1
    84    39    42    1
    85    39    38    1
    86    39    40    1
    87    46    47    1
    88    46    40   am
    89    28    27    1
    90    19    20   ar
    91    19    17   ar
    92    56    55    1
    93    20    18   ar
    94     6     5    1
    95    29    27    1
    96    47    50    1
    97    47    48    1
    98    40    41    2
    99    69    68   ar
   100    69    67   ar
   101    27    26    1
   102     5     2    1
   103    68    66   ar
   104    17    15   ar
   105    35    34    1
   106    18    16   ar
   107    55    52    1
   108    34    31    1
   109    67    65   ar
   110    48    49    2
   111    25    24    2
   112    51    52    1
   113     2     3    1
   114     2     1    1
   115    26    23    1
   116    52    53    1
   117    15    16   ar
   118    15    14    1
   119    66    65   ar
   120    24    23    1
   121    24    30   am
   122    65    64    1
   123    31    30    1
   124    31    32    1
   125     3     4    2
   126    23    22    1
   127    53    60   am
   128    53    54    2
   129    14    11    1
   130    60    61    1
   131    32    33    2
   132    64    61    1
   133    61    62    1
   134    13    12    2
   135    11    12    1
   136    11    10    1
   137    62    63    2
