@<TRIPOS>MOLECULE
tmp/1e3zA01.pdb
 110 108 0 0 0
SMALL
GASTEIGER

@<TRIPOS>ATOM
      1  N         30.2480   43.3200   36.9470 N.3    47  LEU47      -0.1245
      2  CA        31.4020   44.0870   37.4330 C.3    47  LEU47       0.1561
      3  C         31.7860   45.2450   36.5160 C.2    47  LEU47       0.2260
      4  O         32.6360   46.0610   36.9100 O.2    47  LEU47      -0.2867
      5  CB        32.6100   43.2150   37.7470 C.3    47  LEU47       0.0270
      6  CG        33.5110   42.7660   36.6090 C.3    47  LEU47       0.0019
      7  CD1       34.7500   42.1080   37.2350 C.3    47  LEU47       0.0001
      8  CD2       32.7830   41.7750   35.7080 C.3    47  LEU47       0.0001
      9  N         29.8460   50.9230   39.5560 N.3    68  LYS68      -0.1245
     10  CA        30.7100   50.5030   38.4470 C.3    68  LYS68       0.1561
     11  C         30.7550   51.4790   37.2970 C.2    68  LYS68       0.2260
     12  O         30.9760   51.1070   36.1400 O.2    68  LYS68      -0.2867
     13  CB        30.3190   49.1030   37.9480 C.3    68  LYS68       0.0271
     14  CG        30.3430   48.0510   39.0400 C.3    68  LYS68       0.0035
     15  CD        31.6800   48.0660   39.7750 C.3    68  LYS68       0.0206
     16  CE        31.8510   46.8360   40.6550 C.3    68  LYS68       0.1093
     17  NZ        33.1180   46.8850   41.4610 N.3    68  LYS68      -0.1314
     18  N         30.2060   35.6110   43.0330 N.3   104  LYS104     -0.1231
     19  CA        30.0890   37.0520   42.9680 C.3   104  LYS104      0.1693
     20  C         31.4050   37.5940   42.3970 C.2   104  LYS104      0.2592
     21  O         32.4810   37.1180   42.7330 O.2   104  LYS104     -0.2718
     22  CB        29.7710   37.7810   44.2730 C.3   104  LYS104      0.0285
     23  CG        28.4520   37.2570   44.8990 C.3   104  LYS104      0.0035
     24  CD        28.1750   38.0260   46.1980 C.3   104  LYS104      0.0206
     25  CE        27.7330   39.4670   45.9980 C.3   104  LYS104      0.1093
     26  NZ        26.3810   39.5310   45.3290 N.3   104  LYS104     -0.1314
     27  N         31.3080   38.6770   41.6200 N.am  105  ALA105     -0.1966
     28  CA        32.4400   39.2970   40.9850 C.3   105  ALA105      0.1728
     29  C         32.5450   40.8120   41.2190 C.2   105  ALA105      0.2617
     30  O         31.5060   41.4650   41.3480 O.2   105  ALA105     -0.2715
     31  CB        32.2570   39.1580   39.4510 C.3   105  ALA105      0.0334
     32  N         33.7630   41.3500   41.1730 N.am  106  GLY106     -0.1940
     33  CA        33.9100   42.8000   41.2600 C.3   106  GLY106      0.2014
     34  C         33.8370   43.3810   42.6490 C.2   106  GLY106      0.2638
     35  O         33.3120   44.4960   42.8610 O.2   106  GLY106     -0.2714
     36  N         34.3650   42.6730   43.6470 N.am  107  ALA107     -0.1977
     37  CA        34.3320   43.1960   45.0090 C.3   107  ALA107      0.1597
     38  C         34.9200   44.6130   45.0700 C.2   107  ALA107      0.2287
     39  O         35.8350   44.9740   44.3210 O.2   107  ALA107     -0.2864
     40  CB        35.1260   42.2880   45.9430 C.3   107  ALA107      0.0319
     41  N         39.4720   39.1910   46.6740 N.3   136  TRP136     -0.1241
     42  CA        38.4470   40.2150   46.3930 C.3   136  TRP136      0.1605
     43  C         37.1020   39.7370   46.9060 C.2   136  TRP136      0.2264
     44  O         36.3020   39.0970   46.1870 O.2   136  TRP136     -0.2867
     45  CB        38.4370   40.4890   44.8900 C.3   136  TRP136      0.0550
     46  CG        39.6550   41.2420   44.4160 C.ar  136  TRP136      0.0003
     47  CD1       40.8110   40.7170   43.9090 C.ar  136  TRP136      0.0946
     48  CD2       39.8310   42.6680   44.4250 C.ar  136  TRP136      0.0152
     49  NE1       41.7050   41.7270   43.6130 N.ar  136  TRP136     -0.2442
     50  CE2       41.1100   42.9400   43.9090 C.ar  136  TRP136      0.0810
     51  CE3       39.0170   43.7390   44.8240 C.ar  136  TRP136      0.0012
     52  CZ2       41.6150   44.2330   43.7820 C.ar  136  TRP136      0.0191
     53  CZ3       39.5170   45.0280   44.6710 C.ar  136  TRP136      0.0001
     54  CH2       40.7950   45.2780   44.1480 C.ar  136  TRP136      0.0015
     55  N         40.1090   32.4210   43.1630 N.3   162  ASP162     -0.1225
     56  CA        41.2270   31.9100   42.3510 C.3   162  ASP162      0.1805
     57  C         42.2710   32.9800   42.0810 C.2   162  ASP162      0.2597
     58  O         43.0480   32.8520   41.1250 O.2   162  ASP162     -0.2718
     59  CB        40.6950   31.3390   41.0340 C.3   162  ASP162      0.1424
     60  CG        39.9930   32.3350   40.1340 C.2   162  ASP162      0.3668
     61  OD1       39.7570   33.5030   40.5330 O.co2 162  ASP162     -0.2456
     62  OD2       39.6280   31.9290   38.9950 O.co2 162  ASP162     -0.2456
     63  N         42.3240   34.0170   42.9070 N.am  163  TRP163     -0.1976
     64  CA        43.2640   35.1070   42.6890 C.3   163  TRP163      0.1640
     65  C         43.7130   35.7090   44.0170 C.2   163  TRP163      0.2290
     66  O         42.8990   36.0530   44.8680 O.2   163  TRP163     -0.2864
     67  CB        42.6580   36.2330   41.8450 C.3   163  TRP163      0.0576
     68  CG        43.6100   37.3790   41.5810 C.ar  163  TRP163      0.0006
     69  CD1       43.5600   38.6450   42.0860 C.ar  163  TRP163      0.0946
     70  CD2       44.7120   37.3460   40.6790 C.ar  163  TRP163      0.0152
     71  NE1       44.5900   39.3920   41.5740 N.ar  163  TRP163     -0.2442
     72  CE2       45.3170   38.6130   40.7090 C.ar  163  TRP163      0.0810
     73  CE3       45.2640   36.3520   39.8620 C.ar  163  TRP163      0.0012
     74  CZ2       46.4380   38.9360   39.9330 C.ar  163  TRP163      0.0191
     75  CZ3       46.3890   36.6560   39.1080 C.ar  163  TRP163      0.0001
     76  CH2       46.9510   37.9360   39.1360 C.ar  163  TRP163      0.0015
     77  N         45.6610   38.8220   45.3300 N.3   165  GLU165     -0.1245
     78  CA        46.0970   40.1490   44.9210 C.3   165  GLU165      0.1567
     79  C         47.4620   40.5180   45.4880 C.2   165  GLU165      0.2260
     80  O         48.1070   41.4040   44.9010 O.2   165  GLU165     -0.2867
     81  CB        45.0580   41.1980   45.3990 C.3   165  GLU165      0.0388
     82  CG        45.3560   42.5960   44.8410 C.3   165  GLU165      0.1160
     83  CD        45.1590   42.6970   43.3510 C.2   165  GLU165      0.3649
     84  OE1       44.4270   41.9420   42.6800 O.co2 165  GLU165     -0.2457
     85  OE2       45.7740   43.6290   42.7930 O.co2 165  GLU165     -0.2457
     86  N         34.6710   29.8570   39.2570 N.3   197  MET197     -0.1230
     87  CA        35.3220   31.1390   38.9650 C.3   197  MET197      0.1702
     88  C         34.9630   32.2290   39.9640 C.2   197  MET197      0.2592
     89  O         34.0600   32.0420   40.7970 O.2   197  MET197     -0.2718
     90  CB        34.8530   31.5930   37.5420 C.3   197  MET197      0.0401
     91  CG        33.3230   31.8270   37.4410 C.3   197  MET197      0.0596
     92  SD        32.8540   32.5160   35.7860 S.3   197  MET197     -0.1393
     93  CE        33.1080   31.0250   34.8190 C.3   197  MET197      0.0692
     94  N         35.6380   33.3740   39.9490 N.am  198  TYR198     -0.1962
     95  CA        35.3440   34.5060   40.8450 C.3   198  TYR198      0.1771
     96  C         35.3040   34.0740   42.3090 C.2   198  TYR198      0.2619
     97  O         36.0910   33.2070   42.6990 O.2   198  TYR198     -0.2715
     98  CB        34.0930   35.2320   40.3510 C.3   198  TYR198      0.0574
     99  CG        34.2240   36.0530   39.0760 C.ar  198  TYR198     -0.0198
    100  CD1       35.0640   37.1420   39.0870 C.ar  198  TYR198     -0.0009
    101  CD2       33.5010   35.7980   37.9120 C.ar  198  TYR198     -0.0009
    102  CE1       35.2340   37.9640   37.9790 C.ar  198  TYR198      0.0417
    103  CE2       33.6400   36.5910   36.7700 C.ar  198  TYR198      0.0417
    104  CZ        34.4950   37.6630   36.8120 C.ar  198  TYR198      0.1957
    105  OH        34.6570   38.5300   35.7570 O.3   198  TYR198     -0.2866
    106  N         34.5110   34.6880   43.1760 N.am  199  ALA199     -0.1977
    107  CA        34.4290   34.3250   44.5940 C.3   199  ALA199      0.1597
    108  C         33.2500   33.3800   44.7610 C.2   199  ALA199      0.2287
    109  O         32.1320   33.7410   44.3800 O.2   199  ALA199     -0.2864
    110  CB        34.2920   35.5860   45.4610 C.3   199  ALA199      0.0319
@<TRIPOS>BOND
     1    93    92    1
     2     8     6    1
     3   105   104    1
     4    92    91    1
     5    12    11    2
     6     3     4    2
     7     3     2    1
     8     6     7    1
     9     6     5    1
    10   103   104   ar
    11   103   101   ar
    12   104   102   ar
    13     1     2    1
    14    11    10    1
    15     2     5    1
    16    91    90    1
    17    90    87    1
    18   101    99   ar
    19    13    10    1
    20    13    14    1
    21   102   100   ar
    22    10     9    1
    23    87    86    1
    24    87    88    1
    25    62    60   ar
    26    14    15    1
    27    99   100   ar
    28    99    98    1
    29    75    76   ar
    30    75    73   ar
    31    76    74   ar
    32    31    28    1
    33    15    16    1
    34    73    70   ar
    35    74    72   ar
    36    94    88   am
    37    94    95    1
    38    88    89    2
    39    60    61   ar
    40    60    59    1
    41    98    95    1
    42    16    17    1
    43    70    72   ar
    44    70    68   ar
    45    72    71   ar
    46    95    96    1
    47    28    29    1
    48    28    27    1
    49    59    56    1
    50    58    57    2
    51    32    29   am
    52    32    33    1
    53    29    30    2
    54    33    34    1
    55    71    69   ar
    56    68    67    1
    57    68    69   ar
    58    27    20   am
    59    67    64    1
    60    57    56    1
    61    57    63   am
    62    96    97    2
    63    96   106   am
    64    56    55    1
    65    20    21    2
    66    20    19    1
    67    34    35    2
    68    34    36   am
    69    84    83   ar
    70    64    63    1
    71    64    65    1
    72    85    83   ar
    73    19    18    1
    74    19    22    1
    75   106   107    1
    76    83    82    1
    77    49    50   ar
    78    49    47   ar
    79    36    37    1
    80    52    50   ar
    81    52    54   ar
    82    50    48   ar
    83    47    46   ar
    84    65    66    2
    85    54    53   ar
    86    22    23    1
    87    39    38    2
    88   109   108    2
    89    46    48   ar
    90    46    45    1
    91    48    51   ar
    92   107   108    1
    93   107   110    1
    94    53    51   ar
    95    82    81    1
    96    45    42    1
    97    23    24    1
    98    80    79    2
    99    78    77    1
   100    78    81    1
   101    78    79    1
   102    37    38    1
   103    37    40    1
   104    26    25    1
   105    25    24    1
   106    44    43    2
   107    42    41    1
   108    42    43    1
