@<TRIPOS>MOLECULE
tmp/1e40A01.pdb
 134 126 0 0 0
SMALL
GASTEIGER

@<TRIPOS>ATOM
      1  N         -2.4680   25.1270   23.3570 N.3     1  VAL1       -0.1231
      2  CA        -1.3780   25.6010   22.4520 C.3     1  VAL1        0.1692
      3  C         -0.0190   25.0970   22.9330 C.2     1  VAL1        0.2592
      4  O          0.2010   24.9440   24.1340 O.2     1  VAL1       -0.2718
      5  CB        -1.3460   27.1350   22.3510 C.3     1  VAL1        0.0266
      6  CG1       -0.4520   27.5510   21.1900 C.3     1  VAL1        0.0020
      7  CG2       -2.7680   27.6620   22.1650 C.3     1  VAL1        0.0020
      8  N          0.8410   24.7460   21.9970 N.am    2  ASN2       -0.1960
      9  CA         2.1750   24.2550   22.3270 C.3     2  ASN2        0.1819
     10  C          3.0270   25.4130   22.8240 C.2     2  ASN2        0.2621
     11  O          3.0200   26.4840   22.1970 O.2     2  ASN2       -0.2715
     12  CB         2.7340   23.7020   21.0240 C.3     2  ASN2        0.1195
     13  CG         2.0540   22.4270   20.5340 C.2     2  ASN2        0.2630
     14  OD1        1.6410   21.5730   21.3170 O.2     2  ASN2       -0.2716
     15  ND2        1.9500   22.2670   19.2240 N.am    2  ASN2       -0.0877
     16  N          3.7230   25.2650   23.9500 N.am    3  GLY3       -0.1954
     17  CA         4.5550   26.3700   24.4250 C.3     3  GLY3        0.1869
     18  C          5.8950   26.3520   23.6920 C.2     3  GLY3        0.2309
     19  O          6.4420   25.3160   23.2870 O.2     3  GLY3       -0.2863
     20  N          5.7100   31.7050   23.5510 N.3    36  THR36      -0.1203
     21  CA         4.9350   31.8400   24.7680 C.3    36  THR36       0.1994
     22  C          5.7570   32.2550   25.9880 C.2    36  THR36       0.2617
     23  O          5.1860   32.6120   27.0320 O.2    36  THR36      -0.2717
     24  CB         4.1960   30.5020   25.0720 C.3    36  THR36       0.1784
     25  OG1        5.1810   29.4540   25.0910 O.3    36  THR36      -0.2211
     26  CG2        3.1720   30.2490   23.9850 C.3    36  THR36       0.0376
     27  N          7.0820   32.1990   25.9210 N.am   37  ALA37      -0.1979
     28  CA         7.8780   32.6020   27.1000 C.3    37  ALA37       0.1597
     29  C          9.2150   33.1230   26.5900 C.2    37  ALA37       0.2287
     30  O          9.6800   32.6360   25.5590 O.2    37  ALA37      -0.2864
     31  CB         8.0380   31.4640   28.1150 C.3    37  ALA37       0.0319
     32  N          0.1970   38.1040   26.4620 N.3    92  ASN92      -0.1240
     33  CA         0.2630   36.7830   27.0360 C.3    92  ASN92       0.1653
     34  C          1.5420   35.9960   26.8040 C.2    92  ASN92       0.2266
     35  O          1.5240   34.7790   26.5980 O.2    92  ASN92      -0.2867
     36  CB        -0.9710   35.9350   26.6460 C.3    92  ASN92       0.1155
     37  CG        -2.2110   36.6980   27.1080 C.2    92  ASN92       0.2627
     38  OD1       -2.7240   37.4690   26.2810 O.2    92  ASN92      -0.2716
     39  ND2       -2.5980   36.5230   28.3640 N.am   92  ASN92      -0.0877
     40  N          5.0980   34.9630   28.7140 N.3    94  GLN94      -0.1245
     41  CA         5.6840   34.8980   30.0370 C.3    94  GLN94       0.1566
     42  C          7.1550   35.3280   30.0210 C.2    94  GLN94       0.2260
     43  O          7.7520   35.4240   28.9500 O.2    94  GLN94      -0.2867
     44  CB         5.5160   33.4750   30.5810 C.3    94  GLN94       0.0367
     45  CG         4.0410   33.2290   30.9430 C.3    94  GLN94       0.0905
     46  CD         3.8970   31.9090   31.6600 C.2    94  GLN94       0.2608
     47  OE1        4.6450   30.9700   31.4150 O.2    94  GLN94      -0.2717
     48  NE2        2.9680   31.7760   32.5780 N.am   94  GLN94      -0.0878
     49  N         10.9510   34.7150   31.8900 N.3    96  TYR96      -0.1241
     50  CA        11.8200   33.9550   32.7870 C.3    96  TYR96       0.1605
     51  C         13.1180   34.7380   33.0180 C.2    96  TYR96       0.2264
     52  O         13.7200   35.1480   32.0190 O.2    96  TYR96      -0.2867
     53  CB        12.1320   32.5730   32.2470 C.3    96  TYR96       0.0534
     54  CG        10.9820   31.6440   31.9260 C.ar   96  TYR96      -0.0201
     55  CD1        9.7330   31.7800   32.5030 C.ar   96  TYR96      -0.0009
     56  CD2       11.1790   30.5920   31.0180 C.ar   96  TYR96      -0.0009
     57  CE1        8.6840   30.9210   32.1990 C.ar   96  TYR96       0.0417
     58  CE2       10.1500   29.7300   30.6920 C.ar   96  TYR96       0.0417
     59  CZ         8.9240   29.9040   31.2780 C.ar   96  TYR96       0.1957
     60  OH         7.9140   29.0490   30.9740 O.3    96  TYR96      -0.2866
     61  N          3.3370   29.4050   39.8720 N.3   255  GLU255     -0.1196
     62  CA         3.9850   28.1650   39.4160 C.3   255  GLU255      0.1783
     63  C          5.5060   28.3130   39.3460 C.2   255  GLU255      0.2306
     64  O          6.2390   27.3910   39.6800 O.2   255  GLU255     -0.2863
     65  CB         3.4300   27.7810   38.0200 C.2   255  GLU255      0.0071
     66  CG         4.1020   26.5960   37.3620 C.2   255  GLU255      0.0834
     67  CD         3.9450   26.4440   35.8700 C.2   255  GLU255      0.3877
     68  OE1        3.2900   27.2700   35.1970 O.co2 255  GLU255     -0.2406
     69  OE2        4.4890   25.5050   35.2600 O.co2 255  GLU255     -0.2406
     70  N          7.8270   28.3680   36.7010 N.3   257  PHE257     -0.1241
     71  CA         8.5310   27.3650   35.9010 C.3   257  PHE257      0.1605
     72  C         10.0400   27.6090   36.0270 C.2   257  PHE257      0.2264
     73  O         10.4540   28.7810   35.9520 O.2   257  PHE257     -0.2867
     74  CB         8.1350   27.3990   34.4120 C.3   257  PHE257      0.0534
     75  CG         8.9740   26.4390   33.5780 C.ar  257  PHE257     -0.0203
     76  CD1        8.6010   25.1230   33.4450 C.ar  257  PHE257     -0.0042
     77  CD2       10.1360   26.8600   32.9480 C.ar  257  PHE257     -0.0042
     78  CE1        9.3690   24.2350   32.7090 C.ar  257  PHE257     -0.0003
     79  CE2       10.9180   26.0040   32.1960 C.ar  257  PHE257     -0.0003
     80  CZ        10.5220   24.6700   32.0650 C.ar  257  PHE257     -0.0000
     81  N         13.0750   21.5850   35.5170 N.3   282  SER282     -0.1217
     82  CA        13.5710   20.8620   34.3300 C.3   282  SER282      0.1889
     83  C         15.0620   21.0850   34.1380 C.2   282  SER282      0.2288
     84  O         15.6560   21.9360   34.8150 O.2   282  SER282     -0.2866
     85  CB        12.8600   21.4150   33.0880 C.3   282  SER282      0.2089
     86  OG        11.4650   21.3230   33.1700 O.3   282  SER282     -0.2183
     87  N         10.7180   13.1630   29.3760 N.3   317  PRO317     -0.2102
     88  CA        10.2050   14.1370   28.4460 C.3   317  PRO317      0.1504
     89  C          9.6230   15.3910   29.0510 C.2   317  PRO317      0.2575
     90  O          9.7680   16.4900   28.5040 O.2   317  PRO317     -0.2718
     91  CB         9.1800   13.3270   27.6130 C.3   317  PRO317      0.0282
     92  CG         8.8270   12.1760   28.5200 C.3   317  PRO317      0.0208
     93  CD        10.1590   11.7980   29.1180 C.3   317  PRO317      0.0893
     94  N          8.9280   15.3100   30.1620 N.am  318  LEU318     -0.1980
     95  CA         8.2940   16.4450   30.8050 C.3   318  LEU318      0.1596
     96  C          9.2780   17.3600   31.5200 C.2   318  LEU318      0.2287
     97  O          8.8870   18.4600   31.9100 O.2   318  LEU318     -0.2864
     98  CB         7.2900   15.8680   31.8410 C.3   318  LEU318      0.0297
     99  CG         6.0860   15.2150   31.1500 C.3   318  LEU318      0.0022
    100  CD1        5.2860   14.2930   32.0670 C.3   318  LEU318      0.0001
    101  CD2        5.2160   16.3600   30.6370 C.3   318  LEU318      0.0001
    102  N         12.4470   18.1210   30.2550 N.3   320  SER320     -0.1217
    103  CA        13.5400   18.5080   29.3640 C.3   320  SER320      0.1889
    104  C         13.2320   19.7870   28.6170 C.2   320  SER320      0.2288
    105  O         12.1580   19.8610   28.0240 O.2   320  SER320     -0.2866
    106  CB        13.8200   17.5000   28.2450 C.3   320  SER320      0.2089
    107  OG        14.0450   16.2230   28.7760 O.3   320  SER320     -0.2183
    108  N          9.2410   17.3280   25.1850 N.3   357  GLY357     -0.1210
    109  CA        10.1700   18.3940   25.4440 C.3   357  GLY357      0.1956
    110  C          9.5280   19.7680   25.3060 C.2   357  GLY357      0.2611
    111  O          8.4860   20.0030   24.6780 O.2   357  GLY357     -0.2717
    112  N         10.2080   20.7100   25.9340 N.am  358  TYR358     -0.1976
    113  CA         9.8320   22.1270   25.8910 C.3   358  TYR358      0.1639
    114  C         10.9590   22.8080   25.0960 C.2   358  TYR358      0.2290
    115  O         12.1020   22.8610   25.5370 O.2   358  TYR358     -0.2864
    116  CB         9.6570   22.6120   27.3130 C.3   358  TYR358      0.0560
    117  CG         9.2330   24.0450   27.5260 C.ar  358  TYR358     -0.0198
    118  CD1        8.8280   24.8770   26.5060 C.ar  358  TYR358     -0.0009
    119  CD2        9.1880   24.5620   28.8280 C.ar  358  TYR358     -0.0009
    120  CE1        8.4050   26.1820   26.7130 C.ar  358  TYR358      0.0417
    121  CE2        8.7820   25.8720   29.0820 C.ar  358  TYR358      0.0417
    122  CZ         8.3810   26.6680   28.0260 C.ar  358  TYR358      0.1957
    123  OH         7.9600   27.9600   28.2250 O.3   358  TYR358     -0.2866
    124  N          4.5330   24.3340   14.4080 N.3   391  ARG391     -0.1245
    125  CA         4.3300   24.0050   15.8090 C.3   391  ARG391      0.1563
    126  C          3.0530   24.6590   16.3400 C.2   391  ARG391      0.2260
    127  O          2.2400   24.0190   17.0080 O.2   391  ARG391     -0.2867
    128  CB         5.5120   24.4480   16.7070 C.3   391  ARG391      0.0307
    129  CG         5.2020   24.2950   18.2090 C.3   391  ARG391      0.0489
    130  CD         6.5050   24.4290   19.0310 C.3   391  ARG391      0.2205
    131  NE         6.2540   24.1650   20.4340 N.pl3 391  ARG391     -0.0865
    132  CZ         6.2130   22.9510   21.0110 C.cat 391  ARG391      0.5346
    133  NH1        6.4410   21.8840   20.2570 N.pl3 391  ARG391      0.1354
    134  NH2        5.9450   22.8320   22.3230 N.pl3 391  ARG391      0.1354
@<TRIPOS>BOND
     1   124   125    1
     2   125   126    1
     3   125   128    1
     4   126   127    2
     5   128   129    1
     6   129   130    1
     7   130   131    1
     8    15    13   am
     9   133   132    1
    10   131   132    2
    11    13    12    1
    12    13    14    2
    13   132   134    1
    14    12     9    1
    15     6     5    1
    16     8     9    1
    17     8     3   am
    18     7     5    1
    19    11    10    2
    20     9    10    1
    21     5     2    1
    22     2     3    1
    23     2     1    1
    24    10    16   am
    25     3     4    2
    26    19    18    2
    27    20    21    1
    28    18    17    1
    29    16    17    1
    30    26    24    1
    31   111   110    2
    32    21    24    1
    33    21    22    1
    34    24    25    1
    35   114   115    2
    36   114   113    1
    37   108   109    1
    38   110   109    1
    39   110   112   am
    40    30    29    2
    41   113   112    1
    42   113   116    1
    43    27    22   am
    44    27    28    1
    45    22    23    2
    46    38    37    2
    47    32    33    1
    48   118   120   ar
    49   118   117   ar
    50    29    28    1
    51    35    34    2
    52    36    33    1
    53    36    37    1
    54   120   122   ar
    55    34    33    1
    56    28    31    1
    57    37    39   am
    58   116   117    1
    59   117   119   ar
    60    91    88    1
    61    91    92    1
    62   105   104    2
    63   122   123    1
    64   122   121   ar
    65   106   107    1
    66   106   103    1
    67    88    89    1
    68    88    87    1
    69    90    89    2
    70    92    93    1
    71   104   103    1
    72    40    41    1
    73   119   121   ar
    74    43    42    2
    75    89    94   am
    76    93    87    1
    77   103   102    1
    78    42    41    1
    79    41    44    1
    80    94    95    1
    81    44    45    1
    82   101    99    1
    83    58    56   ar
    84    58    59   ar
    85    95    96    1
    86    95    98    1
    87    45    46    1
    88    60    59    1
    89    56    54   ar
    90    99    98    1
    91    99   100    1
    92    59    57   ar
    93    47    46    2
    94    96    97    2
    95    46    48   am
    96    49    50    1
    97    54    53    1
    98    54    55   ar
    99    52    51    2
   100    80    79   ar
   101    80    78   ar
   102    79    77   ar
   103    57    55   ar
   104    53    50    1
   105    78    76   ar
   106    50    51    1
   107    77    75   ar
   108    85    86    1
   109    85    82    1
   110    76    75   ar
   111    75    74    1
   112    83    82    1
   113    83    84    2
   114    82    81    1
   115    74    71    1
   116    68    67   ar
   117    69    67   ar
   118    67    66    1
   119    71    72    1
   120    71    70    1
   121    73    72    2
   122    66    65    2
   123    65    62    1
   124    63    62    1
   125    63    64    2
   126    62    61    1
