@<TRIPOS>MOLECULE
tmp/1e40A00.pdb
 117 113 0 0 0
SMALL
GASTEIGER

@<TRIPOS>ATOM
      1  N         25.6810   36.0970   22.6580 N.3    11  TRP11      -0.1241
      2  CA        26.8720   36.6050   23.3150 C.3    11  TRP11       0.1605
      3  C         27.2450   38.0220   22.8770 C.2    11  TRP11       0.2264
      4  O         27.6490   38.8190   23.7400 O.2    11  TRP11      -0.2867
      5  CB        28.0860   35.6960   23.1190 C.3    11  TRP11       0.0550
      6  CG        29.1710   36.0300   24.1200 C.ar   11  TRP11       0.0003
      7  CD1       30.3080   36.7790   23.9010 C.ar   11  TRP11       0.0946
      8  CD2       29.2160   35.5800   25.4760 C.ar   11  TRP11       0.0152
      9  NE1       31.0300   36.8030   25.0800 N.ar   11  TRP11      -0.2442
     10  CE2       30.3920   36.1010   26.0590 C.ar   11  TRP11       0.0810
     11  CE3       28.3770   34.7920   26.2760 C.ar   11  TRP11       0.0012
     12  CZ2       30.7420   35.8540   27.3880 C.ar   11  TRP11       0.0191
     13  CZ3       28.7030   34.5640   27.5970 C.ar   11  TRP11       0.0001
     14  CH2       29.8900   35.0990   28.1540 C.ar   11  TRP11       0.0015
     15  N         26.9750   37.5630   33.5900 N.3    54  TYR54      -0.1241
     16  CA        27.5040   36.3690   34.2580 C.3    54  TYR54       0.1605
     17  C         28.6680   36.6550   35.1830 C.2    54  TYR54       0.2264
     18  O         29.1790   35.7210   35.8210 O.2    54  TYR54      -0.2867
     19  CB        27.8480   35.2440   33.2380 C.3    54  TYR54       0.0534
     20  CG        26.5520   34.8610   32.5190 C.ar   54  TYR54      -0.0201
     21  CD1       25.5210   34.2280   33.1870 C.ar   54  TYR54      -0.0009
     22  CD2       26.3640   35.2210   31.1910 C.ar   54  TYR54      -0.0009
     23  CE1       24.3390   33.8920   32.5520 C.ar   54  TYR54       0.0417
     24  CE2       25.1760   34.9110   30.5290 C.ar   54  TYR54       0.0417
     25  CZ        24.1890   34.2250   31.2220 C.ar   54  TYR54       0.1957
     26  OH        23.0150   33.9490   30.5710 O.3    54  TYR54      -0.2866
     27  N         28.6010   32.6740   42.1940 N.3   103  HIS103     -0.1241
     28  CA        29.6730   33.5500   42.5960 C.3   103  HIS103      0.1621
     29  C         29.3190   35.0340   42.5100 C.2   103  HIS103      0.2264
     30  O         28.2980   35.3720   41.9060 O.2   103  HIS103     -0.2867
     31  CB        30.8400   33.3040   41.5860 C.3   103  HIS103      0.0745
     32  CG        30.3980   33.4410   40.1560 C.ar  103  HIS103      0.0817
     33  ND1       30.1230   32.3390   39.3510 N.ar  103  HIS103     -0.2268
     34  CD2       30.1710   34.5210   39.3700 C.ar  103  HIS103      0.1154
     35  CE1       29.7430   32.7530   38.1400 C.ar  103  HIS103      0.1986
     36  NE2       29.7600   34.0870   38.1300 N.ar  103  HIS103     -0.2212
     37  N         34.2120   27.4620   40.6910 N.3   196  LEU196     -0.1231
     38  CA        34.2750   27.7220   39.2590 C.3   196  LEU196      0.1693
     39  C         35.1370   28.9160   38.8860 C.2   196  LEU196      0.2595
     40  O         36.0810   28.8130   38.0890 O.2   196  LEU196     -0.2718
     41  CB        32.8680   27.9320   38.6520 C.3   196  LEU196      0.0284
     42  CG        32.8620   28.3170   37.1650 C.3   196  LEU196      0.0019
     43  CD1       33.3770   27.1890   36.2660 C.3   196  LEU196      0.0001
     44  CD2       31.4820   28.7560   36.6910 C.3   196  LEU196      0.0001
     45  N         34.7890   30.1050   39.3720 N.am  197  MET197     -0.1934
     46  CA        35.4990   31.3300   39.0660 C.3   197  MET197      0.1821
     47  C         35.0580   32.4230   40.0420 C.2   197  MET197      0.2332
     48  O         34.0520   32.2650   40.7140 O.2   197  MET197     -0.2860
     49  CB        35.2620   31.7500   37.5900 C.2   197  MET197      0.0096
     50  CG        33.8240   32.0190   37.2180 C.2   197  MET197      0.0285
     51  SD        33.5070   32.3310   35.4330 S.3   197  MET197     -0.1125
     52  CE        34.8350   33.4890   35.1100 C.3   197  MET197      0.0742
     53  N         15.7020   30.8000   34.9690 N.3   229  ARG229     -0.1245
     54  CA        16.7140   29.9800   34.3050 C.3   229  ARG229      0.1563
     55  C         17.8780   29.9820   35.3060 C.2   229  ARG229      0.2260
     56  O         18.4020   31.0730   35.5800 O.2   229  ARG229     -0.2867
     57  CB        17.1320   30.5280   32.9630 C.3   229  ARG229      0.0307
     58  CG        18.1800   29.7290   32.1860 C.3   229  ARG229      0.0489
     59  CD        19.5680   30.2850   32.4590 C.3   229  ARG229      0.2205
     60  NE        20.6110   29.6510   31.6510 N.pl3 229  ARG229     -0.0865
     61  CZ        21.9070   29.9240   31.7930 C.cat 229  ARG229      0.5346
     62  NH1       22.2920   30.8320   32.6890 N.pl3 229  ARG229      0.1354
     63  NH2       22.8020   29.2790   31.0390 N.pl3 229  ARG229      0.1354
     64  N         21.5910   29.5380   36.2600 N.3   231  ASP231     -0.1225
     65  CA        22.9360   29.4210   35.7500 C.3   231  ASP231      0.1805
     66  C         23.8570   28.5170   36.5830 C.2   231  ASP231      0.2597
     67  O         23.8560   28.5490   37.8230 O.2   231  ASP231     -0.2718
     68  CB        23.5250   30.8400   35.7140 C.3   231  ASP231      0.1424
     69  CG        24.9310   30.9010   35.1160 C.2   231  ASP231      0.3668
     70  OD1       25.0740   30.6870   33.9010 O.co2 231  ASP231     -0.2456
     71  OD2       25.8770   31.1990   35.8740 O.co2 231  ASP231     -0.2456
     72  N         24.7180   27.7850   35.8960 N.am  232  ALA232     -0.1979
     73  CA        25.7810   27.0120   36.5420 C.3   232  ALA232      0.1597
     74  C         25.3370   26.0640   37.6390 C.2   232  ALA232      0.2287
     75  O         25.9770   25.9570   38.6890 O.2   232  ALA232     -0.2864
     76  CB        26.7610   28.0480   37.1370 C.3   232  ALA232      0.0319
     77  N         20.5550   24.9610   34.1090 N.3   261  GLU261     -0.1245
     78  CA        21.6900   24.7180   33.2470 C.3   261  GLU261      0.1567
     79  C         22.6260   23.7460   34.0040 C.2   261  GLU261      0.2260
     80  O         23.4070   24.1720   34.8580 O.2   261  GLU261     -0.2867
     81  CB        22.4180   26.0140   32.8800 C.3   261  GLU261      0.0388
     82  CG        23.5900   25.7790   31.9190 C.3   261  GLU261      0.1160
     83  CD        24.8130   26.6270   32.1810 C.2   261  GLU261      0.3649
     84  OE1       25.1050   27.1710   33.2500 O.co2 261  GLU261     -0.2457
     85  OE2       25.5890   26.7860   31.2200 O.co2 261  GLU261     -0.2457
     86  N         24.0540   30.8950   23.6680 N.3   327  HIS327     -0.1226
     87  CA        25.1550   31.8360   23.7870 C.3   327  HIS327      0.1752
     88  C         26.4930   31.1850   24.1290 C.2   327  HIS327      0.2596
     89  O         27.5380   31.7950   23.8850 O.2   327  HIS327     -0.2718
     90  CB        24.8130   32.9250   24.8390 C.3   327  HIS327      0.0759
     91  CG        24.5650   32.3580   26.2150 C.ar  327  HIS327      0.0818
     92  ND1       23.5530   31.4490   26.4590 N.ar  327  HIS327     -0.2268
     93  CD2       25.2010   32.5590   27.3830 C.ar  327  HIS327      0.1154
     94  CE1       23.5980   31.0980   27.7580 C.ar  327  HIS327      0.1986
     95  NE2       24.5670   31.7610   28.3410 N.ar  327  HIS327     -0.2212
     96  N         26.5230   29.9890   24.7120 N.am  328  ASP328     -0.1974
     97  CA        27.7860   29.3030   24.9810 C.3   328  ASP328      0.1709
     98  C         28.2780   28.4350   23.8280 C.2   328  ASP328      0.2293
     99  O         29.4800   28.1380   23.7490 O.2   328  ASP328     -0.2864
    100  CB        27.6660   28.3970   26.2240 C.3   328  ASP328      0.1436
    101  CG        27.3960   29.2580   27.4650 C.2   328  ASP328      0.3671
    102  OD1       28.0850   30.3150   27.5510 O.co2 328  ASP328     -0.2456
    103  OD2       26.5410   28.9380   28.3110 O.co2 328  ASP328     -0.2456
    104  N         32.9680   29.7110   24.8160 N.3   334  SER334     -0.1202
    105  CA        33.6870   28.7260   25.6120 C.3   334  SER334      0.2020
    106  C         33.3320   27.2760   25.3380 C.2   334  SER334      0.2618
    107  O         34.1940   26.4040   25.3720 O.2   334  SER334     -0.2717
    108  CB        33.5180   29.0690   27.0980 C.3   334  SER334      0.2103
    109  OG        32.1610   29.0600   27.5270 O.3   334  SER334     -0.2182
    110  N         32.0630   27.0320   25.0510 N.am  335  LEU335     -0.1979
    111  CA        31.5500   25.6950   24.7970 C.3   335  LEU335      0.1596
    112  C         31.1430   25.4860   23.3470 C.2   335  LEU335      0.2287
    113  O         30.2810   24.6720   23.0060 O.2   335  LEU335     -0.2864
    114  CB        30.3800   25.4410   25.7550 C.3   335  LEU335      0.0297
    115  CG        30.7380   25.5050   27.2540 C.3   335  LEU335      0.0022
    116  CD1       29.4890   25.4660   28.1190 C.3   335  LEU335      0.0001
    117  CD2       31.7070   24.4000   27.6320 C.3   335  LEU335      0.0001
@<TRIPOS>BOND
     1     1     2    1
     2     3     2    1
     3     3     4    2
     4   113   112    2
     5     5     2    1
     6     5     6    1
     7   112   111    1
     8    86    87    1
     9    99    98    2
    10    87    88    1
    11    87    90    1
    12    98    97    1
    13    89    88    2
    14     7     6   ar
    15     7     9   ar
    16     6     8   ar
    17    88    96   am
    18    96    97    1
    19   111   110    1
    20   111   114    1
    21   104   105    1
    22    90    91    1
    23    97   100    1
    24   110   106   am
    25     9    10   ar
    26   106   107    2
    27   106   105    1
    28     8    10   ar
    29     8    11   ar
    30   105   108    1
    31   114   115    1
    32    10    12   ar
    33    91    92   ar
    34    91    93   ar
    35   100   101    1
    36    11    13   ar
    37    92    94   ar
    38   108   109    1
    39   115   117    1
    40   115   116    1
    41    93    95   ar
    42    12    14   ar
    43   101   102   ar
    44   101   103   ar
    45    13    14   ar
    46    94    95   ar
    47    24    22   ar
    48    24    25   ar
    49    26    25    1
    50    63    61    1
    51    22    20   ar
    52    85    83   ar
    53    25    23   ar
    54    60    61    2
    55    60    59    1
    56    61    62    1
    57    82    83    1
    58    82    81    1
    59    83    84   ar
    60    58    59    1
    61    58    57    1
    62    20    21   ar
    63    20    19    1
    64    23    21   ar
    65    81    78    1
    66    57    54    1
    67    19    16    1
    68    78    79    1
    69    78    77    1
    70    15    16    1
    71    70    69   ar
    72    79    80    2
    73    16    17    1
    74    54    53    1
    75    54    55    1
    76    52    51    1
    77    69    68    1
    78    69    71   ar
    79    17    18    2
    80    55    56    2
    81    51    50    1
    82    68    65    1
    83    65    64    1
    84    65    66    1
    85    72    73    1
    86    72    66   am
    87    43    42    1
    88    73    76    1
    89    73    74    1
    90    66    67    2
    91    44    42    1
    92    42    41    1
    93    50    49    2
    94    49    46    1
    95    74    75    2
    96    40    39    2
    97    36    35   ar
    98    36    34   ar
    99    35    33   ar
   100    41    38    1
   101    39    38    1
   102    39    45   am
   103    46    45    1
   104    46    47    1
   105    38    37    1
   106    33    32   ar
   107    34    32   ar
   108    47    48    2
   109    32    31    1
   110    31    28    1
   111    30    29    2
   112    27    28    1
   113    29    28    1
