@<TRIPOS>MOLECULE
tmp/1e47A00.pdb
 111 109 0 0 0
SMALL
GASTEIGER

@<TRIPOS>ATOM
      1  N        -14.1440   39.5410   24.2550 N.3    26  THR26      -0.1203
      2  CA       -15.0920   39.7830   23.1710 C.3    26  THR26       0.1994
      3  C        -16.5050   39.9100   23.7640 C.2    26  THR26       0.2618
      4  O        -17.5500   39.4790   23.2780 O.2    26  THR26      -0.2717
      5  CB       -15.0460   38.8170   21.9800 C.3    26  THR26       0.1784
      6  OG1      -15.5790   37.5180   22.2910 O.3    26  THR26      -0.2211
      7  CG2      -13.6180   38.6600   21.4410 C.3    26  THR26       0.0376
      8  N        -16.4980   40.6050   24.9030 N.am   27  ALA27      -0.1965
      9  CA       -17.6570   40.8000   25.7370 C.3    27  ALA27       0.1728
     10  C        -18.5330   41.9810   25.3540 C.2    27  ALA27       0.2617
     11  O        -19.7170   42.0010   25.7370 O.2    27  ALA27      -0.2715
     12  CB       -17.1310   40.9240   27.1710 C.3    27  ALA27       0.0334
     13  N        -18.0810   42.9520   24.5790 N.am   28  GLY28      -0.1940
     14  CA       -18.9380   44.0830   24.2950 C.3    28  GLY28       0.2014
     15  C        -20.1280   43.9020   23.3890 C.2    28  GLY28       0.2638
     16  O        -20.3290   42.9550   22.6430 O.2    28  GLY28      -0.2714
     17  N        -21.0010   44.9040   23.4530 N.am   29  ASN29      -0.1972
     18  CA       -22.1710   45.0270   22.5960 C.3    29  ASN29       0.1688
     19  C        -22.4380   46.5240   22.4640 C.2    29  ASN29       0.2292
     20  O        -22.1710   47.2830   23.3820 O.2    29  ASN29      -0.2864
     21  CB       -23.3930   44.2670   23.0690 C.3    29  ASN29       0.1181
     22  CG       -23.4360   44.0570   24.5710 C.2    29  ASN29       0.2629
     23  OD1      -23.8240   44.9490   25.3100 O.2    29  ASN29      -0.2716
     24  ND2      -23.0030   42.8700   25.0110 N.am   29  ASN29      -0.0877
     25  N        -25.7130   44.9670   18.1930 N.3    41  THR41      -0.1204
     26  CA       -24.9240   43.8240   17.7580 C.3    41  THR41       0.1979
     27  C        -25.6170   42.5110   18.0830 C.2    41  THR41       0.2460
     28  O        -26.3720   42.3790   19.0440 O.2    41  THR41      -0.2732
     29  CB       -23.5490   43.8650   18.4350 C.3    41  THR41       0.1783
     30  OG1      -23.7100   44.2010   19.8350 O.3    41  THR41      -0.2211
     31  CG2      -22.7130   44.9260   17.7380 C.3    41  THR41       0.0376
     32  N        -25.3930   41.4800   17.2600 N.am   42  PRO42      -0.2717
     33  CA       -25.9960   40.1760   17.4570 C.3    42  PRO42       0.1536
     34  C        -25.2400   39.3470   18.4950 C.2    42  PRO42       0.2599
     35  O        -24.0470   39.5930   18.7000 O.2    42  PRO42      -0.2715
     36  CB       -25.8180   39.4810   16.1060 C.3    42  PRO42       0.0310
     37  CG       -24.5770   40.0830   15.5540 C.3    42  PRO42       0.0237
     38  CD       -24.4960   41.5000   16.0800 C.3    42  PRO42       0.0939
     39  N        -25.8960   38.3230   19.0290 N.am   43  THR43      -0.1937
     40  CA       -25.1900   37.4290   19.9310 C.3    43  THR43       0.2028
     41  C        -24.4480   36.3500   19.1280 C.2    43  THR43       0.2642
     42  O        -24.8860   35.9630   18.0430 O.2    43  THR43      -0.2714
     43  CB       -26.0990   36.6870   20.9190 C.3    43  THR43       0.1808
     44  OG1      -25.2160   36.0310   21.8300 O.3    43  THR43      -0.2208
     45  CG2      -26.9510   35.6490   20.2060 C.3    43  THR43       0.0379
     46  N        -23.3520   35.8490   19.7000 N.am   44  GLY44      -0.1954
     47  CA       -22.6110   34.7650   19.0580 C.3    44  GLY44       0.1869
     48  C        -21.4850   35.2270   18.1470 C.2    44  GLY44       0.2309
     49  O        -20.3030   35.1940   18.5250 O.2    44  GLY44      -0.2863
     50  N        -27.8950   40.7340   20.9470 N.3    71  SER71      -0.1202
     51  CA       -27.0190   40.4840   22.0750 C.3    71  SER71       0.2020
     52  C        -27.8570   40.0010   23.2420 C.2    71  SER71       0.2619
     53  O        -28.9840   40.4640   23.4980 O.2    71  SER71      -0.2717
     54  CB       -26.3600   41.8190   22.4780 C.3    71  SER71       0.2103
     55  OG       -25.9630   41.7430   23.8280 O.3    71  SER71      -0.2182
     56  N        -27.2260   39.1720   24.0750 N.am   72  SER72      -0.1937
     57  CA       -27.9310   38.6920   25.2700 C.3    72  SER72       0.2055
     58  C        -28.1840   39.8140   26.2580 C.2    72  SER72       0.2642
     59  O        -28.9580   39.6180   27.2090 O.2    72  SER72      -0.2714
     60  CB       -27.1240   37.5690   25.9390 C.3    72  SER72       0.2130
     61  OG       -25.8440   38.1420   26.2300 O.3    72  SER72      -0.2179
     62  N        -27.5370   40.9730   26.1130 N.am   73  GLN73      -0.1976
     63  CA       -27.7320   42.1010   27.0060 C.3    73  GLN73       0.1601
     64  C        -28.6190   43.1990   26.4220 C.2    73  GLN73       0.2287
     65  O        -28.6710   44.3240   26.9270 O.2    73  GLN73      -0.2864
     66  CB       -26.3690   42.6850   27.3910 C.3    73  GLN73       0.0394
     67  CG       -25.4090   41.8290   28.1930 C.3    73  GLN73       0.0908
     68  CD       -26.1150   40.9400   29.2000 C.2    73  GLN73       0.2608
     69  OE1      -26.6810   41.4030   30.2120 O.2    73  GLN73      -0.2717
     70  NE2      -26.1170   39.6540   28.8440 N.am   73  GLN73      -0.0878
     71  N        -21.2710   48.9660   25.7740 N.3    92  HIS92      -0.1241
     72  CA       -21.0680   48.1100   26.9280 C.3    92  HIS92       0.1621
     73  C        -19.8060   47.2710   26.7110 C.2    92  HIS92       0.2264
     74  O        -19.6020   46.7550   25.6220 O.2    92  HIS92      -0.2867
     75  CB       -22.2640   47.1700   27.1350 C.3    92  HIS92       0.0745
     76  CG       -22.0290   46.1170   28.1680 C.ar   92  HIS92       0.0817
     77  ND1      -21.7670   46.3760   29.4870 N.ar   92  HIS92      -0.2268
     78  CD2      -21.9680   44.7530   28.0310 C.ar   92  HIS92       0.1154
     79  CE1      -21.5970   45.2250   30.1400 C.ar   92  HIS92       0.1986
     80  NE2      -21.7320   44.2320   29.2760 N.ar   92  HIS92      -0.2212
     81  N        -16.4250   44.9720   29.0400 N.3    94  HIS94      -0.1241
     82  CA       -15.8390   44.4660   30.2600 C.3    94  HIS94       0.1621
     83  C        -14.3800   44.9390   30.3660 C.2    94  HIS94       0.2264
     84  O        -13.5140   44.1700   30.7990 O.2    94  HIS94      -0.2867
     85  CB       -15.8850   42.9380   30.3320 C.3    94  HIS94       0.0745
     86  CG       -17.2540   42.3280   30.2820 C.ar   94  HIS94       0.0817
     87  ND1      -17.4300   40.9750   30.4080 N.ar   94  HIS94      -0.2268
     88  CD2      -18.5020   42.8330   30.1060 C.ar   94  HIS94       0.1154
     89  CE1      -18.7410   40.6890   30.2900 C.ar   94  HIS94       0.1986
     90  NE2      -19.4190   41.8200   30.0940 N.ar   94  HIS94      -0.2212
     91  N        -27.2040   38.7770   34.7330 N.3   131  PHE131     -0.1241
     92  CA       -27.2550   39.3150   33.3770 C.3   131  PHE131      0.1605
     93  C        -28.5770   38.9490   32.6880 C.2   131  PHE131      0.2264
     94  O        -29.1690   37.8900   32.9080 O.2   131  PHE131     -0.2867
     95  CB       -26.0740   38.8650   32.5040 C.3   131  PHE131      0.0534
     96  CG       -26.1090   37.4290   32.0680 C.ar  131  PHE131     -0.0203
     97  CD1      -25.6460   36.4230   32.9070 C.ar  131  PHE131     -0.0042
     98  CD2      -26.6480   37.0790   30.8380 C.ar  131  PHE131     -0.0042
     99  CE1      -25.6860   35.0930   32.5190 C.ar  131  PHE131     -0.0003
    100  CE2      -26.6940   35.7510   30.4380 C.ar  131  PHE131     -0.0003
    101  CZ       -26.2110   34.7600   31.2840 C.ar  131  PHE131     -0.0000
    102  N        -19.2020   42.8360   36.8920 N.3   155  HIS155     -0.1241
    103  CA       -19.6000   42.6830   35.4920 C.3   155  HIS155      0.1621
    104  C        -18.8210   43.5420   34.5290 C.2   155  HIS155      0.2264
    105  O        -18.1310   42.9670   33.6700 O.2   155  HIS155     -0.2867
    106  CB       -21.1170   42.8940   35.3980 C.3   155  HIS155      0.0745
    107  CG       -21.6680   42.6410   34.0280 C.ar  155  HIS155      0.0817
    108  ND1      -22.9610   42.2500   33.7940 N.ar  155  HIS155     -0.2268
    109  CD2      -21.0870   42.6810   32.7940 C.ar  155  HIS155      0.1154
    110  CE1      -23.1590   42.0900   32.4910 C.ar  155  HIS155      0.1986
    111  NE2      -22.0130   42.3630   31.8570 N.ar  155  HIS155     -0.2212
@<TRIPOS>BOND
     1    37    38    1
     2    37    36    1
     3    38    32    1
     4    36    33    1
     5    32    33    1
     6    32    27   am
     7    33    34    1
     8    31    29    1
     9    26    27    1
    10    26    25    1
    11    26    29    1
    12    42    41    2
    13    27    28    2
    14    48    49    2
    15    48    47    1
    16    29    30    1
    17    34    35    2
    18    34    39   am
    19    39    40    1
    20    47    46    1
    21    41    46   am
    22    41    40    1
    23    40    43    1
    24    45    43    1
    25    43    44    1
    26    50    51    1
    27     7     5    1
    28     5     6    1
    29     5     2    1
    30    51    54    1
    31    51    52    1
    32    19    18    1
    33    19    20    2
    34    54    55    1
    35    18    21    1
    36    18    17    1
    37    16    15    2
    38    21    22    1
    39     2     3    1
    40     2     1    1
    41    52    53    2
    42    52    56   am
    43     4     3    2
    44    15    17   am
    45    15    14    1
    46     3     8   am
    47    56    57    1
    48    14    13    1
    49    22    24   am
    50    22    23    2
    51    13    10   am
    52     8     9    1
    53    57    60    1
    54    57    58    1
    55    10    11    2
    56    10     9    1
    57    74    73    2
    58     9    12    1
    59    71    72    1
    60    60    61    1
    61    62    58   am
    62    62    63    1
    63    58    59    2
    64    64    65    2
    65    64    63    1
    66    73    72    1
    67    72    75    1
    68    63    66    1
    69    75    76    1
    70    66    67    1
    71    78    76   ar
    72    78    80   ar
    73    76    77   ar
    74    67    68    1
    75    70    68   am
    76    81    82    1
    77    68    69    2
    78    80    79   ar
    79    77    79   ar
    80    90    88   ar
    81    90    89   ar
    82    88    86   ar
    83    82    85    1
    84    82    83    1
    85    86    85    1
    86    86    87   ar
    87    89    87   ar
    88    83    84    2
    89   100    98   ar
    90   100   101   ar
    91    98    96   ar
    92   101    99   ar
    93   111   110   ar
    94   111   109   ar
    95    96    95    1
    96    96    97   ar
    97   110   108   ar
    98    95    92    1
    99    99    97   ar
   100    93    94    2
   101    93    92    1
   102   109   107   ar
   103    92    91    1
   104   105   104    2
   105   108   107   ar
   106   107   106    1
   107   104   103    1
   108   106   103    1
   109   103   102    1
