@<TRIPOS>MOLECULE
tmp/1e4eA00.pdb
 184 174 0 0 0
SMALL
GASTEIGER

@<TRIPOS>ATOM
      1  N         43.0100   35.5930   14.7130 N.3   132  LYS132     -0.1245
      2  CA        42.9210   35.0010   13.3840 C.3   132  LYS132      0.1561
      3  C         43.9800   33.9350   13.1560 C.2   132  LYS132      0.2260
      4  O         43.6450   32.8990   12.6190 O.2   132  LYS132     -0.2867
      5  CB        42.8030   36.0350   12.2230 C.3   132  LYS132      0.0271
      6  CG        41.5020   36.8340   12.2260 C.3   132  LYS132      0.0035
      7  CD        41.5080   37.9280   11.1720 C.3   132  LYS132      0.0206
      8  CE        40.0960   38.4990   10.9270 C.3   132  LYS132      0.1093
      9  NZ        39.8670   39.4550   12.0950 N.3   132  LYS132     -0.1314
     10  N         44.4830   30.7740    4.4640 N.3   147  PRO147     -0.2116
     11  CA        45.4770   31.5620    3.7280 C.3   147  PRO147      0.1372
     12  C         46.8060   31.3610    4.3430 C.2   147  PRO147      0.2244
     13  O         46.9540   31.2350    5.5350 O.2   147  PRO147     -0.2868
     14  CB        45.0930   33.0740    4.0400 C.3   147  PRO147      0.0268
     15  CG        43.8370   32.9720    4.8540 C.3   147  PRO147      0.0207
     16  CD        43.6890   31.5480    5.4640 C.3   147  PRO147      0.0892
     17  N         47.3350   41.1550    2.3850 N.3   168  PHE168     -0.1241
     18  CA        46.3630   41.8120    3.2850 C.3   168  PHE168      0.1605
     19  C         47.0530   41.9910    4.6400 C.2   168  PHE168      0.2264
     20  O         47.6650   41.0600    5.1620 O.2   168  PHE168     -0.2867
     21  CB        45.0340   41.0970    3.4020 C.3   168  PHE168      0.0534
     22  CG        44.2280   41.1490    2.1680 C.ar  168  PHE168     -0.0203
     23  CD1       44.5800   40.3580    1.1040 C.ar  168  PHE168     -0.0042
     24  CD2       43.0970   41.9710    2.0600 C.ar  168  PHE168     -0.0042
     25  CE1       43.9280   40.4000   -0.0470 C.ar  168  PHE168     -0.0003
     26  CE2       42.4370   42.0210    0.8910 C.ar  168  PHE168     -0.0003
     27  CZ        42.8420   41.2160   -0.1620 C.ar  168  PHE168     -0.0000
     28  N         46.5770   43.2610    8.5790 N.3   170  LYS170     -0.1245
     29  CA        45.5280   43.3740    9.5800 C.3   170  LYS170      0.1561
     30  C         46.0310   43.0030   10.9530 C.2   170  LYS170      0.2260
     31  O         47.0220   42.3060   11.1120 O.2   170  LYS170     -0.2867
     32  CB        44.3090   42.5020    9.2520 C.3   170  LYS170      0.0271
     33  CG        44.6420   41.0750    9.4940 C.3   170  LYS170      0.0035
     34  CD        43.5250   40.1410    8.9750 C.3   170  LYS170      0.0206
     35  CE        43.4950   39.8910    7.4410 C.3   170  LYS170      0.1093
     36  NZ        42.5690   38.7140    7.0860 N.3   170  LYS170     -0.1314
     37  N         41.0290   41.8540   15.7000 N.3   174  SER174     -0.1202
     38  CA        40.0770   42.9220   15.6300 C.3   174  SER174      0.2020
     39  C         38.8460   42.4490   14.8050 C.2   174  SER174      0.2619
     40  O         38.5870   41.2330   14.7450 O.2   174  SER174     -0.2717
     41  CB        40.7770   44.1660   15.1460 C.3   174  SER174      0.2103
     42  OG        39.9070   45.2160   15.2180 O.3   174  SER174     -0.2182
     43  N         38.0760   43.3850   14.2510 N.am  175  GLY175     -0.1942
     44  CA        36.8660   43.0810   13.5160 C.3   175  GLY175      0.2014
     45  C         36.3810   44.3280   12.8570 C.2   175  GLY175      0.2640
     46  O         36.9980   45.4480   13.0470 O.2   175  GLY175     -0.2714
     47  N         35.3330   44.1590   12.0440 N.am  176  SER176     -0.1935
     48  CA        34.7580   45.2700   11.3060 C.3   176  SER176      0.2055
     49  C         35.6880   45.9840   10.3860 C.2   176  SER176      0.2644
     50  O         35.4010   47.0710    9.9490 O.2   176  SER176     -0.2714
     51  CB        34.0780   46.3340   12.2380 C.3   176  SER176      0.2130
     52  OG        32.9800   45.6530   12.8470 O.3   176  SER176     -0.2179
     53  N         36.7460   45.3080   10.0270 N.am  177  SER177     -0.1935
     54  CA        37.7800   45.8340    9.1640 C.3   177  SER177      0.2055
     55  C         38.5940   46.9120    9.7800 C.2   177  SER177      0.2643
     56  O         39.3500   47.5000    9.0870 O.2   177  SER177     -0.2714
     57  CB        37.3040   46.1860    7.7900 C.3   177  SER177      0.2130
     58  OG        36.4510   45.2060    7.2390 O.3   177  SER177     -0.2179
     59  N         38.5050   47.1750   11.0720 N.am  178  PHE178     -0.1973
     60  CA        39.4400   48.0960   11.6020 C.3   178  PHE178      0.1639
     61  C         40.8330   47.5470   11.3420 C.2   178  PHE178      0.2290
     62  O         41.1750   46.3720   11.5080 O.2   178  PHE178     -0.2864
     63  CB        39.2800   48.3480   13.1060 C.3   178  PHE178      0.0560
     64  CG        38.0770   49.1770   13.4570 C.ar  178  PHE178     -0.0200
     65  CD1       38.1330   50.5700   13.3480 C.ar  178  PHE178     -0.0042
     66  CD2       36.9040   48.5580   13.8630 C.ar  178  PHE178     -0.0042
     67  CE1       37.0190   51.3450   13.6740 C.ar  178  PHE178     -0.0003
     68  CE2       35.7840   49.2810   14.1410 C.ar  178  PHE178     -0.0003
     69  CZ        35.8170   50.6860   14.1080 C.ar  178  PHE178     -0.0000
     70  N         42.3910   46.9050    8.5460 N.3   180  VAL180     -0.1245
     71  CA        42.6350   45.9780    7.4580 C.3   180  VAL180      0.1561
     72  C         42.9750   46.7020    6.1570 C.2   180  VAL180      0.2260
     73  O         42.4850   47.7500    5.9020 O.2   180  VAL180     -0.2867
     74  CB        41.4110   45.1000    7.1540 C.3   180  VAL180      0.0252
     75  CG1       41.7680   44.0870    6.0270 C.3   180  VAL180      0.0019
     76  CG2       40.9130   44.4620    8.4170 C.3   180  VAL180      0.0019
     77  N         48.7270   38.5470    5.1810 N.3   206  GLU206     -0.1182
     78  CA        48.1730   37.3520    4.5700 C.3   206  GLU206      0.1915
     79  C         48.3130   37.3190    3.0090 C.2   206  GLU206      0.2634
     80  O         48.2340   38.3300    2.3290 O.2   206  GLU206     -0.2714
     81  CB        46.6780   37.1380    4.8760 C.2   206  GLU206      0.0085
     82  CG        46.2960   36.9550    6.3040 C.2   206  GLU206      0.0835
     83  CD        44.7910   36.7770    6.5820 C.2   206  GLU206      0.3877
     84  OE1       43.9090   36.5960    5.6980 O.co2 206  GLU206     -0.2406
     85  OE2       44.4450   36.8160    7.7680 O.co2 206  GLU206     -0.2406
     86  N         48.3720   36.1060    2.4750 N.am  207  GLN207     -0.1977
     87  CA        48.3870   35.9390    1.0330 C.3   207  GLN207      0.1601
     88  C         47.0320   36.4010    0.5270 C.2   207  GLN207      0.2287
     89  O         45.9670   35.9990    1.0700 O.2   207  GLN207     -0.2864
     90  CB        49.0650   35.2350    0.4100 C.3   207  GLN207      0.0394
     91  CG        50.5750   35.1680    0.1780 C.3   207  GLN207      0.0908
     92  CD        51.3550   36.0140   -0.8000 C.2   207  GLN207      0.2608
     93  OE1       52.5340   36.2750   -0.9750 O.2   207  GLN207     -0.2717
     94  NE2       50.3500   36.7800   -1.2700 N.am  207  GLN207     -0.0878
     95  N         43.7940   35.9870   -0.9890 N.3   209  VAL209     -0.1245
     96  CA        43.1520   34.7660   -1.4110 C.3   209  VAL209      0.1561
     97  C         42.1160   35.1060   -2.4950 C.2   209  VAL209      0.2260
     98  O         41.2400   35.9790   -2.3410 O.2   209  VAL209     -0.2867
     99  CB        42.3680   34.1160   -0.2660 C.3   209  VAL209      0.0252
    100  CG1       41.3930   33.1270   -0.8500 C.3   209  VAL209      0.0019
    101  CG2       43.2650   33.5030    0.8170 C.3   209  VAL209      0.0019
    102  N         33.7730   36.1380   -1.3570 N.3   213  GLU213     -0.1245
    103  CA        33.5300   35.8380   -0.0070 C.3   213  GLU213      0.1567
    104  C         32.2070   35.2430    0.0670 C.2   213  GLU213      0.2260
    105  O         31.2840   35.7990   -0.4840 O.2   213  GLU213     -0.2867
    106  CB        33.7000   37.0950    0.8450 C.3   213  GLU213      0.0388
    107  CG        35.0860   37.6920    0.6360 C.3   213  GLU213      0.1160
    108  CD        35.3730   39.0000    1.3650 C.2   213  GLU213      0.3649
    109  OE1       34.9530   39.1750    2.5120 O.co2 213  GLU213     -0.2457
    110  OE2       36.0860   39.8540    0.8110 O.co2 213  GLU213     -0.2457
    111  N         33.1580   42.3950   -4.8270 N.3   235  LEU235     -0.1245
    112  CA        33.7410   43.6670   -4.5770 C.3   235  LEU235      0.1561
    113  C         34.2110   44.2780   -5.9070 C.2   235  LEU235      0.2260
    114  O         34.7690   43.5560   -6.7140 O.2   235  LEU235     -0.2867
    115  CB        34.9790   43.4590   -3.7000 C.3   235  LEU235      0.0270
    116  CG        34.7870   42.9730   -2.2370 C.3   235  LEU235      0.0019
    117  CD1       36.0850   42.7460   -1.4690 C.3   235  LEU235      0.0001
    118  CD2       33.8280   43.8780   -1.3820 C.3   235  LEU235      0.0001
    119  N         38.1740   46.3210   -0.1450 N.3   239  ILE239     -0.1231
    120  CA        37.8910   45.1840    0.7050 C.3   239  ILE239      0.1692
    121  C         36.5080   45.4080    1.2470 C.2   239  ILE239      0.2592
    122  O         36.0020   46.5190    1.1380 O.2   239  ILE239     -0.2718
    123  CB        38.8890   45.1820    1.8850 C.3   239  ILE239      0.0266
    124  CG1       38.6730   46.4410    2.7180 C.3   239  ILE239      0.0019
    125  CG2       40.3470   45.1620    1.4220 C.3   239  ILE239      0.0020
    126  CD1       39.2350   46.3030    4.0850 C.3   239  ILE239      0.0001
    127  N         35.8600   44.3800    1.7970 N.am  240  PHE240     -0.1976
    128  CA        34.5540   44.5810    2.4330 C.3   240  PHE240      0.1639
    129  C         34.8560   45.2700    3.7770 C.2   240  PHE240      0.2290
    130  O         35.6200   44.7570    4.5800 O.2   240  PHE240     -0.2864
    131  CB        33.8400   43.2450    2.6360 C.3   240  PHE240      0.0560
    132  CG        32.4440   43.3760    3.2470 C.ar  240  PHE240     -0.0200
    133  CD1       31.4000   43.9970    2.5350 C.ar  240  PHE240     -0.0042
    134  CD2       32.1490   42.8340    4.5050 C.ar  240  PHE240     -0.0042
    135  CE1       30.1400   44.0990    3.0210 C.ar  240  PHE240     -0.0003
    136  CE2       30.8660   42.9320    5.0260 C.ar  240  PHE240     -0.0003
    137  CZ        29.8370   43.6060    4.2920 C.ar  240  PHE240     -0.0000
    138  N         36.1900   32.0020    1.6630 N.3   293  PHE293     -0.1241
    139  CA        36.4170   32.4170    0.2950 C.3   293  PHE293      0.1605
    140  C         36.1010   31.2260   -0.6260 C.2   293  PHE293      0.2264
    141  O         36.4890   30.1040   -0.3320 O.2   293  PHE293     -0.2867
    142  CB        37.7940   32.8330    0.0530 C.3   293  PHE293      0.0534
    143  CG        38.2980   33.9310    0.9500 C.ar  293  PHE293     -0.0203
    144  CD1       38.1140   35.2400    0.6120 C.ar  293  PHE293     -0.0042
    145  CD2       39.0820   33.6600    2.0750 C.ar  293  PHE293     -0.0042
    146  CE1       38.6250   36.2760    1.4010 C.ar  293  PHE293     -0.0003
    147  CE2       39.6630   34.7360    2.8840 C.ar  293  PHE293     -0.0003
    148  CZ        39.4290   36.0190    2.5210 C.ar  293  PHE293     -0.0000
    149  N         38.1140   32.3930    5.7660 N.3   303  ASN303     -0.1225
    150  CA        38.5070   33.8280    5.9450 C.3   303  ASN303      0.1785
    151  C         38.6520   34.0400    7.4790 C.2   303  ASN303      0.2597
    152  O         39.7630   34.1990    8.0140 O.2   303  ASN303     -0.2718
    153  CB        37.4040   34.7380    5.3570 C.3   303  ASN303      0.1169
    154  CG        37.4930   36.1700    5.8210 C.2   303  ASN303      0.2627
    155  OD1       38.5700   36.7470    5.9650 O.2   303  ASN303     -0.2716
    156  ND2       36.3510   36.7880    5.9920 N.am  303  ASN303     -0.0877
    157  N         37.5320   33.9320    8.1710 N.am  304  GLU304     -0.1979
    158  CA        37.5340   34.0560    9.6220 C.3   304  GLU304      0.1602
    159  C         36.1650   33.6390   10.2280 C.2   304  GLU304      0.2287
    160  O         35.2240   33.2990    9.5130 O.2   304  GLU304     -0.2864
    161  CB        37.8920   35.5030   10.0420 C.3   304  GLU304      0.0415
    162  CG        37.0030   36.5870    9.3960 C.3   304  GLU304      0.1163
    163  CD        36.5830   37.7240   10.3810 C.2   304  GLU304      0.3649
    164  OE1       37.1860   37.8770   11.4650 O.co2 304  GLU304     -0.2457
    165  OE2       35.6750   38.4750   10.1050 O.co2 304  GLU304     -0.2457
    166  N         33.3120   34.8650   13.0490 N.3   306  ASN306     -0.1240
    167  CA        32.8610   35.9100   13.9810 C.3   306  ASN306      0.1653
    168  C         31.8360   35.3370   14.9520 C.2   306  ASN306      0.2266
    169  O         30.6580   34.9640   14.7000 O.2   306  ASN306     -0.2867
    170  CB        32.4630   37.2570   13.3050 C.3   306  ASN306      0.1155
    171  CG        33.4920   37.7350   12.3260 C.2   306  ASN306      0.2627
    172  OD1       33.4090   37.4320   11.1130 O.2   306  ASN306     -0.2716
    173  ND2       34.4640   38.4380   12.7930 N.am  306  ASN306     -0.0877
    174  N         25.1910   40.7410    8.1350 N.3   316  ARG316     -0.1301
    175  CA        25.1390   39.5480    7.3250 C.3   316  ARG316      0.1248
    176  C         24.4030   38.4500    8.0010 C.3   316  ARG316      0.2009
    177  O         23.6040   37.6710    7.3600 O.3   316  ARG316     -0.2188
    178  CB        26.5660   39.0290    7.0090 C.3   316  ARG316      0.0254
    179  CG        27.3950   40.0310    6.2320 C.3   316  ARG316      0.0485
    180  CD        28.7840   39.6620    5.9860 C.3   316  ARG316      0.2205
    181  NE        28.9040   38.4460    5.1660 N.pl3 316  ARG316     -0.0865
    182  CZ        30.0660   37.8510    4.9590 C.cat 316  ARG316      0.5346
    183  NH1       31.1580   38.3610    5.5360 N.pl3 316  ARG316      0.1354
    184  NH2       30.1420   36.7700    4.2350 N.pl3 316  ARG316      0.1354
@<TRIPOS>BOND
     1   114   113    2
     2   113   112    1
     3   111   112    1
     4   112   115    1
     5   115   116    1
     6    97    98    2
     7    97    96    1
     8   116   117    1
     9   116   118    1
    10    96    95    1
    11    96    99    1
    12   102   103    1
    13    94    92   am
    14    93    92    2
    15   100    99    1
    16    92    91    1
    17   140   141    2
    18   140   139    1
    19   105   104    2
    20    99   101    1
    21    27    25   ar
    22    27    26   ar
    23   119   120    1
    24    25    23   ar
    25   103   104    1
    26   103   106    1
    27   142   139    1
    28   142   143    1
    29    91    90    1
    30   139   138    1
    31    90    87    1
    32    88    87    1
    33    88    89    2
    34   144   143   ar
    35   144   146   ar
    36   107   106    1
    37   107   108    1
    38   120   121    1
    39   120   123    1
    40   110   108   ar
    41    26    24   ar
    42   143   145   ar
    43    87    86    1
    44    23    22   ar
    45   122   121    2
    46   121   127   am
    47   108   109   ar
    48   146   148   ar
    49   125   123    1
    50   127   128    1
    51   123   124    1
    52    24    22   ar
    53   145   147   ar
    54    22    21    1
    55    80    79    2
    56    17    18    1
    57   128   131    1
    58   128   129    1
    59    86    79   am
    60   148   147   ar
    61   133   135   ar
    62   133   132   ar
    63   131   132    1
    64   124   126    1
    65    79    78    1
    66   135   137   ar
    67   132   134   ar
    68    18    21    1
    69    18    19    1
    70    11    14    1
    71    11    12    1
    72    11    10    1
    73   129   130    2
    74    14    15    1
    75   184   182    1
    76   137   136   ar
    77    12    13    2
    78    10    16    1
    79   134   136   ar
    80    78    81    1
    81    78    77    1
    82    19    20    2
    83    15    16    1
    84    81    82    2
    85   182   181    2
    86   182   183    1
    87   181   180    1
    88   153   154    1
    89   153   150    1
    90    84    83   ar
    91   149   150    1
    92   154   155    2
    93   154   156   am
    94    73    72    2
    95   150   151    1
    96   180   179    1
    97    75    74    1
    98    72    71    1
    99   179   178    1
   100    82    83    1
   101    83    85   ar
   102   178   175    1
   103    36    35    1
   104    74    71    1
   105    74    76    1
   106    58    57    1
   107   175   176    1
   108   175   174    1
   109   177   176    1
   110    35    34    1
   111    71    70    1
   112   151   152    2
   113   151   157   am
   114    57    54    1
   115   157   158    1
   116    28    29    1
   117    34    33    1
   118    56    55    2
   119    54    55    1
   120    54    53    1
   121    32    33    1
   122    32    29    1
   123   162   161    1
   124   162   163    1
   125   160   159    2
   126    29    30    1
   127   158   161    1
   128   158   159    1
   129    55    59   am
   130    50    49    2
   131    53    49   am
   132   165   163   ar
   133   163   164   ar
   134    49    48    1
   135     8     7    1
   136     8     9    1
   137    30    31    2
   138    59    60    1
   139   172   171    2
   140     7     6    1
   141    48    47    1
   142    48    51    1
   143    61    62    2
   144    61    60    1
   145    60    63    1
   146    47    45   am
   147     5     6    1
   148     5     2    1
   149    51    52    1
   150   171   173   am
   151   171   170    1
   152     4     3    2
   153    45    46    2
   154    45    44    1
   155   166   167    1
   156    63    64    1
   157     3     2    1
   158   170   167    1
   159    65    64   ar
   160    65    67   ar
   161     2     1    1
   162    64    66   ar
   163    44    43    1
   164    67    69   ar
   165    66    68   ar
   166   167   168    1
   167    69    68   ar
   168    43    39   am
   169   169   168    2
   170    40    39    2
   171    39    38    1
   172    41    42    1
   173    41    38    1
   174    38    37    1
