@<TRIPOS>MOLECULE
tmp/1e4eA01.pdb
 175 169 0 0 0
SMALL
GASTEIGER

@<TRIPOS>ATOM
      1  N         35.0960   48.2230   18.1950 N.3    15  GLU15      -0.1245
      2  CA        33.7950   47.9900   17.5260 C.3    15  GLU15       0.1567
      3  C         32.6140   48.4780   18.3680 C.2    15  GLU15       0.2260
      4  O         31.4640   48.1480   18.0660 O.2    15  GLU15      -0.2867
      5  CB        33.5880   46.5460   17.0930 C.3    15  GLU15       0.0388
      6  CG        34.7380   46.0010   16.2590 C.3    15  GLU15       0.1160
      7  CD        34.6230   44.5100   15.9040 C.2    15  GLU15       0.3649
      8  OE1       33.8910   44.2450   14.9960 O.co2  15  GLU15      -0.2457
      9  OE2       35.3170   43.6650   16.4720 O.co2  15  GLU15      -0.2457
     10  N         29.5540   49.5990   16.5770 N.3    18  VAL18      -0.1245
     11  CA        28.8290   48.6520   15.8300 C.3    18  VAL18       0.1561
     12  C         28.0300   47.8920   16.8820 C.2    18  VAL18       0.2260
     13  O         26.9180   47.4040   16.6400 O.2    18  VAL18      -0.2867
     14  CB        29.8140   47.6820   15.1060 C.3    18  VAL18       0.0252
     15  CG1       29.0690   46.5580   14.4630 C.3    18  VAL18       0.0019
     16  CG2       30.6220   48.4980   14.1180 C.3    18  VAL18       0.0019
     17  N         31.2410   43.3320   20.7200 N.3    98  HIS98      -0.1241
     18  CA        31.9910   42.8010   19.6440 C.3    98  HIS98       0.1621
     19  C         33.5410   42.9640   19.7810 C.2    98  HIS98       0.2264
     20  O         34.0170   44.0040   20.1380 O.2    98  HIS98      -0.2867
     21  CB        31.5960   43.6090   18.3910 C.3    98  HIS98       0.0745
     22  CG        30.2000   43.4210   17.8990 C.ar   98  HIS98       0.0817
     23  ND1       29.6510   42.1700   17.6300 N.ar   98  HIS98      -0.2268
     24  CD2       29.2920   44.3290   17.4930 C.ar   98  HIS98       0.1154
     25  CE1       28.4340   42.3460   17.1310 C.ar   98  HIS98       0.1986
     26  NE2       28.1930   43.6550   17.0460 N.ar   98  HIS98      -0.2212
     27  N         38.0760   43.3850   14.2510 N.3   175  GLY175     -0.1210
     28  CA        36.8660   43.0810   13.5160 C.3   175  GLY175      0.1956
     29  C         36.3810   44.3280   12.8570 C.2   175  GLY175      0.2613
     30  O         36.9980   45.4480   13.0470 O.2   175  GLY175     -0.2717
     31  N         35.3330   44.1590   12.0440 N.am  176  SER176     -0.1938
     32  CA        34.7580   45.2700   11.3060 C.3   176  SER176      0.2055
     33  C         35.6880   45.9840   10.3860 C.2   176  SER176      0.2643
     34  O         35.4010   47.0710    9.9490 O.2   176  SER176     -0.2714
     35  CB        34.0780   46.3340   12.2380 C.3   176  SER176      0.2130
     36  OG        32.9800   45.6530   12.8470 O.3   176  SER176     -0.2179
     37  N         36.7460   45.3080   10.0270 N.am  177  SER177     -0.1949
     38  CA        37.7800   45.8340    9.1640 C.3   177  SER177      0.1924
     39  C         38.5940   46.9120    9.7800 C.2   177  SER177      0.2314
     40  O         39.3500   47.5000    9.0870 O.2   177  SER177     -0.2863
     41  CB        37.3040   46.1860    7.7900 C.3   177  SER177      0.2116
     42  OG        36.4510   45.2060    7.2390 O.3   177  SER177     -0.2180
     43  N         35.8600   44.3800    1.7970 N.3   240  PHE240     -0.1241
     44  CA        34.5540   44.5810    2.4330 C.3   240  PHE240      0.1605
     45  C         34.8560   45.2700    3.7770 C.2   240  PHE240      0.2264
     46  O         35.6200   44.7570    4.5800 O.2   240  PHE240     -0.2867
     47  CB        33.8400   43.2450    2.6360 C.3   240  PHE240      0.0534
     48  CG        32.4440   43.3760    3.2470 C.ar  240  PHE240     -0.0203
     49  CD1       31.4000   43.9970    2.5350 C.ar  240  PHE240     -0.0042
     50  CD2       32.1490   42.8340    4.5050 C.ar  240  PHE240     -0.0042
     51  CE1       30.1400   44.0990    3.0210 C.ar  240  PHE240     -0.0003
     52  CE2       30.8660   42.9320    5.0260 C.ar  240  PHE240     -0.0003
     53  CZ        29.8370   43.6060    4.2920 C.ar  240  PHE240     -0.0000
     54  N         32.0990   47.5190    5.1760 N.3   242  ILE242     -0.1231
     55  CA        30.8740   48.2130    5.3110 C.3   242  ILE242      0.1692
     56  C         30.7050   49.1020    6.5820 C.2   242  ILE242      0.2592
     57  O         30.2120   50.1780    6.4570 O.2   242  ILE242     -0.2718
     58  CB        29.6370   47.2360    5.1170 C.3   242  ILE242      0.0266
     59  CG1       28.2800   48.0040    5.0520 C.3   242  ILE242      0.0019
     60  CG2       29.4010   46.3850    6.3810 C.3   242  ILE242      0.0020
     61  CD1       28.0200   48.8550    3.8890 C.3   242  ILE242      0.0001
     62  N         31.0840   48.6770    7.7730 N.am  243  HIS243     -0.1976
     63  CA        30.9020   49.5060    8.9900 C.3   243  HIS243      0.1656
     64  C         31.7730   50.7580    9.0170 C.2   243  HIS243      0.2291
     65  O         31.5000   51.7310    9.7190 O.2   243  HIS243     -0.2864
     66  CB        31.0470   48.7460   10.3020 C.3   243  HIS243      0.0771
     67  CG        30.0200   47.7010   10.4820 C.ar  243  HIS243      0.0820
     68  ND1       28.6810   48.0020   10.6300 N.ar  243  HIS243     -0.2267
     69  CD2       30.1020   46.3510   10.4530 C.ar  243  HIS243      0.1154
     70  CE1       27.9830   46.8800   10.7450 C.ar  243  HIS243      0.1986
     71  NE2       28.8130   45.8700   10.6080 N.ar  243  HIS243     -0.2212
     72  N         29.2640   33.3020   12.7840 N.3   289  ARG289     -0.1197
     73  CA        29.1540   33.4400   11.3540 C.3   289  ARG289      0.1779
     74  C         30.4830   32.9990   10.8390 C.2   289  ARG289      0.2305
     75  O         31.5430   33.5390   11.2390 O.2   289  ARG289     -0.2863
     76  CB        28.7790   34.8680   10.9210 C.2   289  ARG289     -0.0007
     77  CG        28.3580   35.0540    9.4630 C.2   289  ARG289      0.0176
     78  CD        28.2310   36.5420    8.9960 C.3   289  ARG289      0.2464
     79  NE        29.5590   37.1120    8.8300 N.pl3 289  ARG289     -0.0815
     80  CZ        29.9760   38.1240    9.5480 C.cat 289  ARG289      0.5349
     81  NH1       29.1090   38.6540   10.3970 N.pl3 289  ARG289      0.1354
     82  NH2       31.2280   38.5780    9.4270 N.pl3 289  ARG289      0.1354
     83  N         32.8730   32.8660    7.8230 N.3   291  ASP291     -0.1239
     84  CA        33.1790   33.5460    6.5840 C.3   291  ASP291      0.1674
     85  C         34.2550   32.8530    5.8000 C.2   291  ASP291      0.2266
     86  O         35.3880   32.6420    6.3040 O.2   291  ASP291     -0.2867
     87  CB        33.7130   34.9500    6.9230 C.3   291  ASP291      0.1410
     88  CG        32.6520   35.8850    7.5000 C.2   291  ASP291      0.3668
     89  OD1       31.4250   35.5980    7.4170 O.co2 291  ASP291     -0.2456
     90  OD2       32.9620   36.9700    8.0840 O.co2 291  ASP291     -0.2456
     91  N         38.1140   32.3930    5.7660 N.3   303  ASN303     -0.1225
     92  CA        38.5070   33.8280    5.9450 C.3   303  ASN303      0.1785
     93  C         38.6520   34.0400    7.4790 C.2   303  ASN303      0.2597
     94  O         39.7630   34.1990    8.0140 O.2   303  ASN303     -0.2718
     95  CB        37.4040   34.7380    5.3570 C.3   303  ASN303      0.1169
     96  CG        37.4930   36.1700    5.8210 C.2   303  ASN303      0.2627
     97  OD1       38.5700   36.7470    5.9650 O.2   303  ASN303     -0.2716
     98  ND2       36.3510   36.7880    5.9920 N.am  303  ASN303     -0.0877
     99  N         37.5320   33.9320    8.1710 N.am  304  GLU304     -0.1979
    100  CA        37.5340   34.0560    9.6220 C.3   304  GLU304      0.1602
    101  C         36.1650   33.6390   10.2280 C.2   304  GLU304      0.2287
    102  O         35.2240   33.2990    9.5130 O.2   304  GLU304     -0.2864
    103  CB        37.8920   35.5030   10.0420 C.3   304  GLU304      0.0415
    104  CG        37.0030   36.5870    9.3960 C.3   304  GLU304      0.1163
    105  CD        36.5830   37.7240   10.3810 C.2   304  GLU304      0.3649
    106  OE1       37.1860   37.8770   11.4650 O.co2 304  GLU304     -0.2457
    107  OE2       35.6750   38.4750   10.1050 O.co2 304  GLU304     -0.2457
    108  N         33.3120   34.8650   13.0490 N.3   306  ASN306     -0.1240
    109  CA        32.8610   35.9100   13.9810 C.3   306  ASN306      0.1653
    110  C         31.8360   35.3370   14.9520 C.2   306  ASN306      0.2266
    111  O         30.6580   34.9640   14.7000 O.2   306  ASN306     -0.2867
    112  CB        32.4630   37.2570   13.3050 C.3   306  ASN306      0.1155
    113  CG        33.4920   37.7350   12.3260 C.2   306  ASN306      0.2627
    114  OD1       33.4090   37.4320   11.1130 O.2   306  ASN306     -0.2716
    115  ND2       34.4640   38.4380   12.7930 N.am  306  ASN306     -0.0877
    116  N         30.6100   36.5700   17.8140 N.3   308  LEU308     -0.1231
    117  CA        29.3970   37.2930   18.1270 C.3   308  LEU308      0.1678
    118  C         29.2040   38.2130   16.9310 C.2   308  LEU308      0.2434
    119  O         29.6750   39.3650   16.9680 O.2   308  LEU308     -0.2733
    120  CB        29.3730   38.0270   19.5070 C.3   308  LEU308      0.0284
    121  CG        27.8490   38.2410   19.5110 C.3   308  LEU308      0.0019
    122  CD1       27.0950   37.3020   20.3830 C.3   308  LEU308      0.0001
    123  CD2       27.3600   39.6360   19.6100 C.3   308  LEU308      0.0001
    124  N         28.5330   37.7720   15.8670 N.am  309  PRO309     -0.2718
    125  CA        28.3520   38.5700   14.6490 C.3   309  PRO309      0.1535
    126  C         27.5320   39.8330   14.8450 C.2   309  PRO309      0.2599
    127  O         26.7790   39.9630   15.8130 O.2   309  PRO309     -0.2715
    128  CB        27.6160   37.6090   13.7020 C.3   309  PRO309      0.0310
    129  CG        26.9670   36.6370   14.5350 C.3   309  PRO309      0.0237
    130  CD        27.9380   36.4310   15.7150 C.3   309  PRO309      0.0939
    131  N         27.6950   40.8170   13.9340 N.am  310  GLY310     -0.1955
    132  CA        26.8450   42.0020   14.0910 C.3   310  GLY310      0.1869
    133  C         25.3790   41.6900   13.8710 C.2   310  GLY310      0.2309
    134  O         25.0660   40.7660   13.0520 O.2   310  GLY310     -0.2863
    135  N         21.8800   46.1910    8.7530 N.3   314  TYR314     -0.1227
    136  CA        22.4110   45.8020    7.4450 C.3   314  TYR314      0.1736
    137  C         23.4620   44.6560    7.6780 C.2   314  TYR314      0.2596
    138  O         24.3310   44.4670    6.8580 O.2   314  TYR314     -0.2718
    139  CB        23.0270   47.0040    6.7090 C.3   314  TYR314      0.0548
    140  CG        23.9490   47.8270    7.5920 C.ar  314  TYR314     -0.0200
    141  CD1       23.4280   48.7350    8.5460 C.ar  314  TYR314     -0.0009
    142  CD2       25.3360   47.6480    7.5270 C.ar  314  TYR314     -0.0009
    143  CE1       24.3060   49.4830    9.3900 C.ar  314  TYR314      0.0417
    144  CE2       26.1840   48.3430    8.3440 C.ar  314  TYR314      0.0417
    145  CZ        25.6890   49.2520    9.2670 C.ar  314  TYR314      0.1957
    146  OH        26.5800   49.9060   10.0410 O.3   314  TYR314     -0.2866
    147  N         23.3830   43.9200    8.8020 N.am  315  SER315     -0.1938
    148  CA        24.3510   42.8360    9.0980 C.3   315  SER315      0.2055
    149  C         24.1340   41.5280    8.2860 C.2   315  SER315      0.2643
    150  O         23.0380   41.2260    7.8210 O.2   315  SER315     -0.2714
    151  CB        24.3540   42.5460   10.6070 C.3   315  SER315      0.2130
    152  OG        25.1650   43.5190   11.3010 O.3   315  SER315     -0.2179
    153  N         25.1910   40.7410    8.1350 N.am  316  ARG316     -0.1963
    154  CA        25.1390   39.5480    7.3250 C.3   316  ARG316      0.1729
    155  C         24.4030   38.4500    8.0010 C.2   316  ARG316      0.2616
    156  O         23.6040   37.6710    7.3600 O.2   316  ARG316     -0.2715
    157  CB        26.5660   39.0290    7.0090 C.3   316  ARG316      0.0348
    158  CG        27.3950   40.0310    6.2320 C.3   316  ARG316      0.0492
    159  CD        28.7840   39.6620    5.9860 C.3   316  ARG316      0.2205
    160  NE        28.9040   38.4460    5.1660 N.pl3 316  ARG316     -0.0865
    161  CZ        30.0660   37.8510    4.9590 C.cat 316  ARG316      0.5346
    162  NH1       31.1580   38.3610    5.5360 N.pl3 316  ARG316      0.1354
    163  NH2       30.1420   36.7700    4.2350 N.pl3 316  ARG316      0.1354
    164  N         24.6920   38.3320    9.2960 N.am  317  TYR317     -0.1974
    165  CA        24.1200   37.1770    9.9660 C.3   317  TYR317      0.1639
    166  C         22.5880   37.1870   10.0260 C.2   317  TYR317      0.2290
    167  O         21.9980   36.2230    9.5870 O.2   317  TYR317     -0.2864
    168  CB        24.8380   36.8310   11.2920 C.3   317  TYR317      0.0560
    169  CG        24.3610   35.6270   12.0620 C.ar  317  TYR317     -0.0198
    170  CD1       23.0890   35.6030   12.6280 C.ar  317  TYR317     -0.0009
    171  CD2       25.2180   34.4810   12.2520 C.ar  317  TYR317     -0.0009
    172  CE1       22.5970   34.4830   13.3500 C.ar  317  TYR317      0.0417
    173  CE2       24.8020   33.3980   12.9720 C.ar  317  TYR317      0.0417
    174  CZ        23.4570   33.4110   13.5210 C.ar  317  TYR317      0.1957
    175  OH        22.9910   32.3770   14.2290 O.3   317  TYR317     -0.2866
@<TRIPOS>BOND
     1    43    44    1
     2    44    47    1
     3    44    45    1
     4    49    51   ar
     5    49    48   ar
     6    47    48    1
     7    51    53   ar
     8    48    50   ar
     9    45    46    2
    10    61    59    1
    11   163   161    1
    12    53    52   ar
    13    50    52   ar
    14   161   160    2
    15   161   162    1
    16    59    58    1
    17    58    55    1
    18    58    60    1
    19   160   159    1
    20    54    55    1
    21    55    56    1
    22    95    96    1
    23    95    92    1
    24    91    92    1
    25    85    86    2
    26    85    84    1
    27    96    97    2
    28    96    98   am
    29    92    93    1
    30   159   158    1
    31   158   157    1
    32    57    56    2
    33    56    62   am
    34    84    87    1
    35    84    83    1
    36   139   136    1
    37   139   140    1
    38   138   137    2
    39    87    88    1
    40   157   154    1
    41    42    41    1
    42   154   155    1
    43   154   153    1
    44   156   155    2
    45    89    88   ar
    46   136   137    1
    47   136   135    1
    48    93    94    2
    49    93    99   am
    50    88    90   ar
    51   142   140   ar
    52   142   144   ar
    53   140   141   ar
    54   137   147   am
    55    62    63    1
    56    41    38    1
    57   150   149    2
    58   155   164   am
    59   153   149   am
    60    99   100    1
    61   149   148    1
    62   144   145   ar
    63   141   143   ar
    64   147   148    1
    65    79    78    1
    66    79    80    2
    67    63    64    1
    68    63    66    1
    69    78    77    1
    70    64    65    2
    71    40    39    2
    72   148   151    1
    73    38    39    1
    74    38    37    1
    75   145   143   ar
    76   145   146    1
    77   164   165    1
    78   104   103    1
    79   104   105    1
    80    82    80    1
    81    77    76    2
    82   102   101    2
    83    80    81    1
    84   167   166    2
    85   100   103    1
    86   100   101    1
    87    34    33    2
    88   165   166    1
    89   165   168    1
    90    37    33   am
    91   107   105   ar
    92    66    67    1
    93   105   106   ar
    94    33    32    1
    95    69    67   ar
    96    69    71   ar
    97    67    68   ar
    98   151   152    1
    99    71    70   ar
   100    68    70   ar
   101    74    75    2
   102    74    73    1
   103    76    73    1
   104   114   113    2
   105   168   169    1
   106    32    31    1
   107    32    35    1
   108    73    72    1
   109    31    29   am
   110   169   171   ar
   111   169   170   ar
   112    35    36    1
   113   171   173   ar
   114   113   115   am
   115   113   112    1
   116   170   172   ar
   117    29    30    2
   118    29    28    1
   119   173   174   ar
   120   108   109    1
   121   134   133    2
   122   112   109    1
   123   172   174   ar
   124    28    27    1
   125   174   175    1
   126   128   129    1
   127   128   125    1
   128   133   132    1
   129   131   132    1
   130   131   126   am
   131   109   110    1
   132    16    14    1
   133    15    14    1
   134   129   130    1
   135   125   126    1
   136   125   124    1
   137   111   110    2
   138   126   127    2
   139     8     7   ar
   140    14    11    1
   141   130   124    1
   142    11    10    1
   143    11    12    1
   144   124   118   am
   145     7     6    1
   146     7     9   ar
   147     6     5    1
   148    13    12    2
   149   118   119    2
   150   118   117    1
   151    26    25   ar
   152    26    24   ar
   153     5     2    1
   154    25    23   ar
   155    24    22   ar
   156     2     1    1
   157     2     3    1
   158    23    22   ar
   159   116   117    1
   160    22    21    1
   161     4     3    2
   162   117   120    1
   163    21    18    1
   164   120   121    1
   165   121   123    1
   166   121   122    1
   167    18    19    1
   168    18    17    1
   169    19    20    2
