@<TRIPOS>MOLECULE
tmp/1e4iA00.pdb
 144 145 0 0 0
SMALL
GASTEIGER

@<TRIPOS>ATOM
      1  N         42.1710   52.5220   25.3040 N.3    19  GLN19      -0.1245
      2  CA        42.9960   53.1420   24.2710 C.3    19  GLN19       0.1566
      3  C         44.1890   53.9210   24.8120 C.2    19  GLN19       0.2260
      4  O         45.1600   54.1390   24.0860 O.2    19  GLN19      -0.2867
      5  CB        42.1340   54.0500   23.3890 C.3    19  GLN19       0.0367
      6  CG        40.9750   53.3070   22.7400 C.3    19  GLN19       0.0905
      7  CD        40.2650   54.1410   21.6710 C.2    19  GLN19       0.2608
      8  OE1       40.7360   54.2560   20.5300 O.2    19  GLN19      -0.2717
      9  NE2       39.1070   54.6840   22.0260 N.am   19  GLN19      -0.0878
     10  N         36.2280   64.1770   28.3320 N.3    76  ARG76      -0.1245
     11  CA        35.5010   62.9180   28.2580 C.3    76  ARG76       0.1563
     12  C         36.4650   61.7550   28.3080 C.2    76  ARG76       0.2260
     13  O         37.4450   61.7160   27.5670 O.2    76  ARG76      -0.2867
     14  CB        34.6420   62.8300   26.9850 C.3    76  ARG76       0.0307
     15  CG        33.8240   61.5550   26.9660 C.3    76  ARG76       0.0489
     16  CD        32.6260   61.5960   26.0410 C.3    76  ARG76       0.2205
     17  NE        32.9710   61.0940   24.7210 N.pl3  76  ARG76      -0.0865
     18  CZ        32.6190   59.9090   24.2270 C.cat  76  ARG76       0.5346
     19  NH1       31.8890   59.0500   24.9260 N.pl3  76  ARG76       0.1354
     20  NH2       33.0220   59.5750   23.0140 N.pl3  76  ARG76       0.1354
     21  N         32.9080   51.9990   27.4570 N.3   120  HIS120     -0.1226
     22  CA        33.5730   52.1780   26.1790 C.3   120  HIS120      0.1752
     23  C         34.2990   50.8790   25.7980 C.2   120  HIS120      0.2596
     24  O         35.5270   50.8680   25.5920 O.2   120  HIS120     -0.2718
     25  CB        34.5330   53.3620   26.2420 C.3   120  HIS120      0.0759
     26  CG        34.7510   54.0420   24.9250 C.ar  120  HIS120      0.0818
     27  ND1       35.2080   53.3740   23.8030 N.ar  120  HIS120     -0.2268
     28  CD2       34.6460   55.3440   24.5690 C.ar  120  HIS120      0.1154
     29  CE1       35.3750   54.2370   22.8160 C.ar  120  HIS120      0.1986
     30  NE2       35.0440   55.4390   23.2550 N.ar  120  HIS120     -0.2212
     31  N         33.5360   49.7760   25.8410 N.am  121  TRP121     -0.1976
     32  CA        33.7800   48.5480   25.0600 C.3   121  TRP121      0.1640
     33  C         34.5310   47.4500   25.8060 C.2   121  TRP121      0.2290
     34  O         34.6900   46.3490   25.2920 O.2   121  TRP121     -0.2864
     35  CB        34.5230   48.8570   23.7420 C.3   121  TRP121      0.0576
     36  CG        33.8160   49.8470   22.8420 C.ar  121  TRP121      0.0006
     37  CD1       32.6300   50.4970   23.0910 C.ar  121  TRP121      0.0946
     38  CD2       34.2680   50.3190   21.5720 C.ar  121  TRP121      0.0152
     39  NE1       32.3320   51.3490   22.0560 N.ar  121  TRP121     -0.2442
     40  CE2       33.3160   51.2530   21.1070 C.ar  121  TRP121      0.0810
     41  CE3       35.3740   50.0320   20.7750 C.ar  121  TRP121      0.0012
     42  CZ2       33.4420   51.9000   19.8810 C.ar  121  TRP121      0.0191
     43  CZ3       35.4960   50.6760   19.5520 C.ar  121  TRP121      0.0001
     44  CH2       34.5410   51.5960   19.1150 C.ar  121  TRP121      0.0015
     45  N         29.0200   54.1230   24.9200 N.3   164  ASN164     -0.1225
     46  CA        29.6120   54.7580   23.7400 C.3   164  ASN164      0.1785
     47  C         29.4100   53.8440   22.5300 C.2   164  ASN164      0.2597
     48  O         29.8680   52.6940   22.5340 O.2   164  ASN164     -0.2718
     49  CB        31.1090   54.9760   23.9570 C.3   164  ASN164      0.1169
     50  CG        31.8110   55.5150   22.7230 C.2   164  ASN164      0.2627
     51  OD1       32.6140   54.8200   22.0860 O.2   164  ASN164     -0.2716
     52  ND2       31.6220   56.7890   22.4630 N.am  164  ASN164     -0.0877
     53  N         28.6480   54.3340   21.5510 N.am  165  GLU165     -0.1979
     54  CA        28.4890   53.6930   20.2480 C.3   165  GLU165      0.1602
     55  C         27.9330   52.2820   20.3040 C.2   165  GLU165      0.2287
     56  O         28.6100   51.3150   19.9360 O.2   165  GLU165     -0.2864
     57  CB        29.8150   53.7140   19.4940 C.3   165  GLU165      0.0415
     58  CG        30.3610   55.1250   19.3740 C.3   165  GLU165      0.1163
     59  CD        31.5070   55.2330   18.4020 C.2   165  GLU165      0.3649
     60  OE1       32.2710   54.2680   18.2600 O.co2 165  GLU165     -0.2457
     61  OE2       31.6180   56.2830   17.7460 O.co2 165  GLU165     -0.2457
     62  N         32.1550   61.1830   12.1950 N.3   295  TYR295     -0.1241
     63  CA        33.3830   61.3650   11.4160 C.3   295  TYR295      0.1605
     64  C         33.1380   61.6750    9.9410 C.2   295  TYR295      0.2264
     65  O         33.9450   62.3430    9.3060 O.2   295  TYR295     -0.2867
     66  CB        34.2300   60.1020   11.4660 C.3   295  TYR295      0.0534
     67  CG        34.9140   59.8970   12.7640 C.ar  295  TYR295     -0.0201
     68  CD1       35.8540   60.8170   13.2160 C.ar  295  TYR295     -0.0009
     69  CD2       34.5850   58.8260   13.5730 C.ar  295  TYR295     -0.0009
     70  CE1       36.4400   60.6870   14.4400 C.ar  295  TYR295      0.0417
     71  CE2       35.1680   58.6830   14.7870 C.ar  295  TYR295      0.0417
     72  CZ        36.0960   59.6180   15.2230 C.ar  295  TYR295      0.1957
     73  OH        36.6940   59.4540   16.4470 O.3   295  TYR295     -0.2866
     74  N         39.0440   57.5480    5.4160 N.3   325  TRP325     -0.1241
     75  CA        37.6810   58.0650    5.4620 C.3   325  TRP325      0.1605
     76  C         37.6170   59.3870    4.6980 C.2   325  TRP325      0.2264
     77  O         38.4960   60.2280    4.8490 O.2   325  TRP325     -0.2867
     78  CB        37.2440   58.2810    6.9150 C.3   325  TRP325      0.0550
     79  CG        37.3790   57.0590    7.7970 C.ar  325  TRP325      0.0003
     80  CD1       37.5370   55.7560    7.4000 C.ar  325  TRP325      0.0946
     81  CD2       37.3630   57.0380    9.2290 C.ar  325  TRP325      0.0152
     82  NE1       37.6320   54.9280    8.5030 N.ar  325  TRP325     -0.2442
     83  CE2       37.5300   55.6940    9.6370 C.ar  325  TRP325      0.0810
     84  CE3       37.2500   58.0340   10.2090 C.ar  325  TRP325      0.0012
     85  CZ2       37.5910   55.3280   10.9830 C.ar  325  TRP325      0.0191
     86  CZ3       37.3240   57.6680   11.5430 C.ar  325  TRP325      0.0001
     87  CH2       37.4920   56.3330   11.9170 C.ar  325  TRP325      0.0015
     88  N         32.4530   62.9650   20.0110 N.3   351  GLU351     -0.1245
     89  CA        33.6240   62.4880   19.2740 C.3   351  GLU351      0.1567
     90  C         33.5730   63.0570   17.8580 C.2   351  GLU351      0.2260
     91  O         32.5600   62.9150   17.1500 O.2   351  GLU351     -0.2867
     92  CB        33.6480   60.9430   19.2330 C.3   351  GLU351      0.0388
     93  CG        34.7640   60.2930   18.3800 C.3   351  GLU351      0.1160
     94  CD        34.5140   58.8080   18.0390 C.2   351  GLU351      0.3649
     95  OE1       33.6430   58.6410   17.1280 O.co2 351  GLU351     -0.2457
     96  OE2       35.2090   57.8840   18.9720 O.co2 351  GLU351     -0.2457
     97  N         38.2370   64.3110   19.1770 N.3   397  TRP397     -0.1241
     98  CA        38.7390   62.9600   19.3500 C.3   397  TRP397      0.1605
     99  C         40.0850   62.7950   18.6700 C.2   397  TRP397      0.2264
    100  O         40.1300   62.8460   17.4440 O.2   397  TRP397     -0.2867
    101  CB        37.7790   61.9110   18.7790 C.3   397  TRP397      0.0550
    102  CG        38.3450   60.5200   18.9420 C.ar  397  TRP397      0.0003
    103  CD1       39.2910   59.9270   18.1460 C.ar  397  TRP397      0.0946
    104  CD2       38.2610   59.7020   20.1240 C.ar  397  TRP397      0.0152
    105  NE1       39.8360   58.8370   18.7890 N.ar  397  TRP397     -0.2442
    106  CE2       39.2240   58.6850   20.0060 C.ar  397  TRP397      0.0810
    107  CE3       37.4670   59.7450   21.2760 C.ar  397  TRP397      0.0012
    108  CZ2       39.4280   57.7330   21.0010 C.ar  397  TRP397      0.0191
    109  CZ3       37.6600   58.7820   22.2510 C.ar  397  TRP397      0.0001
    110  CH2       38.6370   57.7960   22.1070 C.ar  397  TRP397      0.0015
    111  N         44.1420   52.4900   18.4450 N.3   404  GLU404     -0.1231
    112  CA        42.9850   52.7050   17.5940 C.3   404  GLU404      0.1699
    113  C         42.3790   51.3570   17.2360 C.2   404  GLU404      0.2592
    114  O         42.2720   50.9800   16.0600 O.2   404  GLU404     -0.2718
    115  CB        43.4090   53.4980   16.3470 C.3   404  GLU404      0.0402
    116  CG        42.3320   53.6950   15.2850 C.3   404  GLU404      0.1161
    117  CD        41.0050   54.2110   15.8280 C.2   404  GLU404      0.3649
    118  OE1       40.9860   54.9590   16.8420 O.co2 404  GLU404     -0.2457
    119  OE2       39.9790   53.9380   15.1620 O.co2 404  GLU404     -0.2457
    120  N         42.0900   50.5810   18.2710 N.am  405  TRP405     -0.1976
    121  CA        41.3710   49.3250   18.1250 C.3   405  TRP405      0.1640
    122  C         42.0320   48.4280   17.0850 C.2   405  TRP405      0.2290
    123  O         43.2290   48.1670   17.1850 O.2   405  TRP405     -0.2864
    124  CB        39.9010   49.6000   17.7950 C.3   405  TRP405      0.0576
    125  CG        39.2510   50.5130   18.7950 C.ar  405  TRP405      0.0006
    126  CD1       38.7400   51.7630   18.5600 C.ar  405  TRP405      0.0946
    127  CD2       39.0810   50.2720   20.2020 C.ar  405  TRP405      0.0152
    128  NE1       38.2750   52.3140   19.7340 N.ar  405  TRP405     -0.2442
    129  CE2       38.4630   51.4180   20.7530 C.ar  405  TRP405      0.0810
    130  CE3       39.3970   49.2010   21.0540 C.ar  405  TRP405      0.0012
    131  CZ2       38.1480   51.5210   22.1100 C.ar  405  TRP405      0.0191
    132  CZ3       39.0820   49.3070   22.4110 C.ar  405  TRP405      0.0001
    133  CH2       38.4600   50.4570   22.9200 C.ar  405  TRP405      0.0015
    134  N         45.0240   59.8190   15.9670 N.3   413  PHE413     -0.1241
    135  CA        43.9070   60.7640   15.9890 C.3   413  PHE413      0.1605
    136  C         44.1820   61.9290   16.9220 C.2   413  PHE413      0.2264
    137  O         43.3510   62.8140   17.0580 O.2   413  PHE413     -0.2867
    138  CB        42.6070   60.0830   16.4480 C.3   413  PHE413      0.0534
    139  CG        41.8540   59.3890   15.3430 C.ar  413  PHE413     -0.0203
    140  CD1       42.1650   58.0920   14.9810 C.ar  413  PHE413     -0.0042
    141  CD2       40.7820   60.0040   14.7260 C.ar  413  PHE413     -0.0042
    142  CE1       41.4070   57.4180   14.0380 C.ar  413  PHE413     -0.0003
    143  CE2       40.0210   59.3300   13.7780 C.ar  413  PHE413     -0.0003
    144  CZ        40.3330   58.0430   13.4460 C.ar  413  PHE413     -0.0000
@<TRIPOS>BOND
     1    76    77    2
     2    76    75    1
     3    74    75    1
     4    75    78    1
     5    78    79    1
     6    80    79   ar
     7    80    82   ar
     8    79    81   ar
     9    82    83   ar
    10    81    83   ar
    11    81    84   ar
    12    65    64    2
    13    83    85   ar
    14    64    63    1
    15    84    86   ar
    16    85    87   ar
    17    63    66    1
    18    63    62    1
    19    66    67    1
    20    86    87   ar
    21    67    68   ar
    22    67    69   ar
    23    68    70   ar
    24   144   143   ar
    25   144   142   ar
    26    69    71   ar
    27   143   141   ar
    28   142   140   ar
    29    70    72   ar
    30   141   139   ar
    31    71    72   ar
    32   140   139   ar
    33   119   117   ar
    34    72    73    1
    35   116   117    1
    36   116   115    1
    37   139   138    1
    38   117   118   ar
    39   134   135    1
    40   135   138    1
    41   135   136    1
    42   114   113    2
    43   115   112    1
    44   136   137    2
    45   122   123    2
    46   122   121    1
    47    95    94   ar
    48    91    90    2
    49   113   112    1
    50   113   120   am
    51   100    99    2
    52   112   111    1
    53    61    59   ar
    54   124   121    1
    55   124   125    1
    56    90    89    1
    57    94    93    1
    58    94    96   ar
    59   121   120    1
    60   103   105   ar
    61   103   102   ar
    62    60    59   ar
    63    93    92    1
    64    59    58    1
    65   126   125   ar
    66   126   128   ar
    67    99    98    1
    68   101   102    1
    69   101    98    1
    70   105   106   ar
    71   125   127   ar
    72   102   104   ar
    73    44    43   ar
    74    44    42   ar
    75    97    98    1
    76    92    89    1
    77    89    88    1
    78    58    57    1
    79    57    54    1
    80    43    41   ar
    81   128   129   ar
    82    42    40   ar
    83    56    55    2
    84   106   104   ar
    85   106   108   ar
    86   104   107   ar
    87   127   129   ar
    88   127   130   ar
    89    54    55    1
    90    54    53    1
    91     8     7    2
    92   129   131   ar
    93    41    38   ar
    94   108   110   ar
    95   130   132   ar
    96    40    38   ar
    97    40    39   ar
    98   107   109   ar
    99    53    47   am
   100    38    36   ar
   101     7     9   am
   102     7     6    1
   103    39    37   ar
   104    51    50    2
   105   110   109   ar
   106   131   133   ar
   107   132   133   ar
   108    52    50   am
   109    47    48    2
   110    47    46    1
   111    50    49    1
   112     6     5    1
   113    29    30   ar
   114    29    27   ar
   115    36    37   ar
   116    36    35    1
   117    20    18    1
   118    30    28   ar
   119     5     2    1
   120    46    49    1
   121    46    45    1
   122    35    32    1
   123    27    26   ar
   124     4     3    2
   125    18    17    2
   126    18    19    1
   127     2     3    1
   128     2     1    1
   129    28    26   ar
   130    17    16    1
   131    26    25    1
   132    32    33    1
   133    32    31    1
   134    34    33    2
   135    24    23    2
   136    23    31   am
   137    23    22    1
   138    16    15    1
   139    22    25    1
   140    22    21    1
   141    15    14    1
   142    14    11    1
   143    13    12    2
   144    11    12    1
   145    11    10    1
