@<TRIPOS>MOLECULE
tmp/1e4iA01.pdb
 98 89 0 0 0
SMALL
GASTEIGER

@<TRIPOS>ATOM
      1  N         21.4130   37.9640   29.5840 N.3   136  ARG136     -0.1231
      2  CA        20.7670   39.0320   30.3350 C.3   136  ARG136      0.1694
      3  C         21.3990   39.2870   31.7120 C.2   136  ARG136      0.2591
      4  O         21.2690   40.3800   32.2760 O.2   136  ARG136     -0.2718
      5  CB        19.2770   38.7540   30.4820 C.3   136  ARG136      0.0321
      6  CG        18.4940   38.9690   29.2130 C.3   136  ARG136      0.0489
      7  CD        16.9840   38.8860   29.4550 C.3   136  ARG136      0.2205
      8  NE        16.4660   40.0530   30.1610 N.pl3 136  ARG136     -0.0865
      9  CZ        15.6660   40.9720   29.6210 C.cat 136  ARG136      0.5346
     10  NH1       15.2980   40.8780   28.3460 N.pl3 136  ARG136      0.1354
     11  NH2       15.1710   41.9420   30.3820 N.pl3 136  ARG136      0.1354
     12  N         22.1530   38.3230   32.2260 N.am  137  ARG137     -0.1980
     13  CA        22.7940   38.5070   33.5220 C.3   137  ARG137      0.1597
     14  C         23.8370   39.6190   33.4860 C.2   137  ARG137      0.2287
     15  O         24.0360   40.3300   34.4770 O.2   137  ARG137     -0.2864
     16  CB        23.4110   37.1920   33.9930 C.3   137  ARG137      0.0334
     17  CG        22.3840   36.2340   34.6200 C.3   137  ARG137      0.0492
     18  CD        22.7780   34.7530   34.4820 C.3   137  ARG137      0.2205
     19  NE        21.8100   33.8680   35.1390 N.pl3 137  ARG137     -0.0865
     20  CZ        21.7960   33.5990   36.4470 C.cat 137  ARG137      0.5346
     21  NH1       22.7110   34.1280   37.2550 N.pl3 137  ARG137      0.1354
     22  NH2       20.8210   32.8570   36.9670 N.pl3 137  ARG137      0.1354
     23  N         23.2680   42.4170   31.9580 N.3   139  ILE139     -0.1231
     24  CA        22.4720   43.6080   32.2380 C.3   139  ILE139      0.1692
     25  C         22.6030   43.9720   33.7150 C.2   139  ILE139      0.2591
     26  O         23.0160   45.0740   34.0750 O.2   139  ILE139     -0.2718
     27  CB        20.9690   43.3700   31.9010 C.3   139  ILE139      0.0266
     28  CG1       20.7850   43.1880   30.3850 C.3   139  ILE139      0.0019
     29  CG2       20.1280   44.5240   32.3990 C.3   139  ILE139      0.0020
     30  CD1       19.3730   42.7840   29.9490 C.3   139  ILE139      0.0001
     31  N         22.3140   43.0020   34.5720 N.am  140  GLN140     -0.1979
     32  CA        22.3200   43.2140   36.0070 C.3   140  GLN140      0.1601
     33  C         23.7250   43.5940   36.4730 C.2   140  GLN140      0.2287
     34  O         23.8970   44.4700   37.3270 O.2   140  GLN140     -0.2864
     35  CB        21.8630   41.9350   36.6970 C.3   140  GLN140      0.0394
     36  CG        21.7050   42.0820   38.1880 C.3   140  GLN140      0.0908
     37  CD        21.4960   40.7550   38.8940 C.2   140  GLN140      0.2608
     38  OE1       21.9110   40.6000   40.0370 O.2   140  GLN140     -0.2717
     39  NE2       20.7870   39.8280   38.2570 N.am  140  GLN140     -0.0878
     40  N         24.3750   47.2420   35.6060 N.3   143  VAL143     -0.1245
     41  CA        23.6870   48.1540   36.4980 C.3   143  VAL143      0.1561
     42  C         24.4020   48.2750   37.8450 C.2   143  VAL143      0.2260
     43  O         24.5050   49.3750   38.3860 O.2   143  VAL143     -0.2867
     44  CB        22.2240   47.7540   36.7190 C.3   143  VAL143      0.0252
     45  CG1       21.5550   48.7730   37.6170 C.3   143  VAL143      0.0019
     46  CG2       21.4870   47.6970   35.3890 C.3   143  VAL143      0.0019
     47  N         25.8290   51.7360   39.1320 N.3   147  GLU147     -0.1245
     48  CA        25.4260   52.1370   40.4800 C.3   147  GLU147      0.1567
     49  C         26.6200   52.4190   41.3890 C.2   147  GLU147      0.2260
     50  O         26.6900   53.4720   42.0030 O.2   147  GLU147     -0.2867
     51  CB        24.5400   51.0510   41.0930 C.3   147  GLU147      0.0388
     52  CG        24.2950   51.2490   42.5660 C.3   147  GLU147      0.1160
     53  CD        22.9380   50.7910   43.0100 C.2   147  GLU147      0.3649
     54  OE1       22.2520   50.0950   42.2330 O.co2 147  GLU147     -0.2457
     55  OE2       22.5570   51.1390   44.1430 O.co2 147  GLU147     -0.2457
     56  N         18.4390   47.7650   27.5380 N.3   198  VAL198     -0.1245
     57  CA        17.7950   47.4900   28.8240 C.3   198  VAL198      0.1561
     58  C         18.7200   47.9010   29.9780 C.2   198  VAL198      0.2260
     59  O         18.2920   48.5660   30.9260 O.2   198  VAL198     -0.2867
     60  CB        17.4360   45.9930   28.9910 C.3   198  VAL198      0.0252
     61  CG1       16.7540   45.7730   30.3580 C.3   198  VAL198      0.0019
     62  CG2       16.5110   45.5350   27.8620 C.3   198  VAL198      0.0019
     63  N         17.9020   50.7440   32.8360 N.3   202  LEU202     -0.1245
     64  CA        17.9800   50.4190   34.2670 C.3   202  LEU202      0.1561
     65  C         18.9880   51.2770   35.0260 C.2   202  LEU202      0.2260
     66  O         18.7220   51.7220   36.1400 O.2   202  LEU202     -0.2867
     67  CB        18.3120   48.9460   34.4670 C.3   202  LEU202      0.0270
     68  CG        17.1500   48.0170   34.1220 C.3   202  LEU202      0.0019
     69  CD1       17.5070   46.6000   34.5100 C.3   202  LEU202      0.0001
     70  CD2       15.8880   48.4760   34.8290 C.3   202  LEU202      0.0001
     71  N         18.2720   53.8270   38.0590 N.3   206  ARG206     -0.1245
     72  CA        19.0130   53.8680   39.3190 C.3   206  ARG206      0.1563
     73  C         19.5730   55.2600   39.5970 C.2   206  ARG206      0.2260
     74  O         19.5450   55.7260   40.7350 O.2   206  ARG206     -0.2867
     75  CB        20.1670   52.8570   39.3210 C.3   206  ARG206      0.0307
     76  CG        19.7790   51.4010   39.5950 C.3   206  ARG206      0.0489
     77  CD        18.8910   51.2320   40.8430 C.3   206  ARG206      0.2205
     78  NE        19.6260   51.4160   42.0870 N.pl3 206  ARG206     -0.0865
     79  CZ        19.1080   51.9560   43.1900 C.cat 206  ARG206      0.5346
     80  NH1       17.8500   52.3680   43.2050 N.pl3 206  ARG206      0.1354
     81  NH2       19.8250   52.0120   44.3030 N.pl3 206  ARG206      0.1354
     82  N         11.3600   41.2730   26.1020 N.3   276  GLN276     -0.1245
     83  CA        10.5800   40.6980   27.1940 C.3   276  GLN276      0.1566
     84  C          9.6250   41.7330   27.7790 C.2   276  GLN276      0.2260
     85  O          9.8390   42.9380   27.6240 O.2   276  GLN276     -0.2867
     86  CB        11.5140   40.1750   28.2770 C.3   276  GLN276      0.0367
     87  CG        12.2930   38.9550   27.8260 C.3   276  GLN276      0.0905
     88  CD        13.1720   38.3630   28.9100 C.2   276  GLN276      0.2608
     89  OE1       13.2140   38.8460   30.0390 O.2   276  GLN276     -0.2717
     90  NE2       13.8930   37.3220   28.5630 N.am  276  GLN276     -0.0878
     91  N         11.3510   50.0640   30.2690 N.3   282  ILE282     -0.1245
     92  CA        12.6570   50.3230   30.8660 C.3   282  ILE282      0.1561
     93  C         13.5030   51.1990   29.9300 C.2   282  ILE282      0.2260
     94  O         14.0790   52.1990   30.3440 O.2   282  ILE282     -0.2867
     95  CB        13.4050   48.9820   31.1410 C.3   282  ILE282      0.0252
     96  CG1       12.6990   48.2180   32.2700 C.3   282  ILE282      0.0019
     97  CG2       14.8790   49.2360   31.4640 C.3   282  ILE282      0.0019
     98  CD1       13.2240   46.8120   32.4590 C.3   282  ILE282      0.0001
@<TRIPOS>BOND
     1    82    83    1
     2    83    84    1
     3    83    86    1
     4    56    57    1
     5    85    84    2
     6    87    86    1
     7    87    88    1
     8    62    60    1
     9    10     9    1
    10    90    88   am
    11    57    60    1
    12    57    58    1
    13    88    89    2
    14    60    61    1
    15     6     7    1
    16     6     5    1
    17     7     8    1
    18     1     2    1
    19     9     8    2
    20     9    11    1
    21    93    94    2
    22    93    92    1
    23    30    28    1
    24    58    59    2
    25    91    92    1
    26     2     5    1
    27     2     3    1
    28    28    27    1
    29    92    95    1
    30    95    97    1
    31    95    96    1
    32     3    12   am
    33     3     4    2
    34    27    24    1
    35    27    29    1
    36    23    24    1
    37    12    13    1
    38    24    25    1
    39    96    98    1
    40    63    64    1
    41    14    13    1
    42    14    15    2
    43    13    16    1
    44    25    26    2
    45    25    31   am
    46    16    17    1
    47    68    67    1
    48    68    69    1
    49    68    70    1
    50    64    67    1
    51    64    65    1
    52    18    17    1
    53    18    19    1
    54    31    32    1
    55    65    66    2
    56    19    20    2
    57    46    44    1
    58    40    41    1
    59    32    33    1
    60    32    35    1
    61    20    22    1
    62    20    21    1
    63    33    34    2
    64    41    44    1
    65    41    42    1
    66    35    36    1
    67    44    45    1
    68    42    43    2
    69    71    72    1
    70    36    37    1
    71    39    37   am
    72    37    38    2
    73    47    48    1
    74    72    75    1
    75    72    73    1
    76    75    76    1
    77    76    77    1
    78    73    74    2
    79    48    51    1
    80    48    49    1
    81    77    78    1
    82    51    52    1
    83    49    50    2
    84    78    79    2
    85    54    53   ar
    86    52    53    1
    87    53    55   ar
    88    79    80    1
    89    79    81    1
