@<TRIPOS>MOLECULE
tmp/1e4wB00.pdb
 104 101 0 0 0
SMALL
GASTEIGER

@<TRIPOS>ATOM
      1  N         11.6000   14.3900  -29.5870 N.3    32  TYR32      -0.1241
      2  CA        13.0140   14.6730  -29.3940 C.3    32  TYR32       0.1605
      3  C         13.4610   15.6300  -30.5380 C.2    32  TYR32       0.2264
      4  O         14.1470   15.2190  -31.4770 O.2    32  TYR32      -0.2867
      5  CB        13.8620   13.4120  -29.4270 C.3    32  TYR32       0.0534
      6  CG        13.7680   12.6300  -28.1110 C.ar   32  TYR32      -0.0201
      7  CD1       14.4780   13.0300  -26.9900 C.ar   32  TYR32      -0.0009
      8  CD2       12.9740   11.4890  -28.0570 C.ar   32  TYR32      -0.0009
      9  CE1       14.3700   12.3190  -25.7910 C.ar   32  TYR32       0.0417
     10  CE2       12.8750   10.7420  -26.8470 C.ar   32  TYR32       0.0417
     11  CZ        13.5710   11.1740  -25.7460 C.ar   32  TYR32       0.1957
     12  OH        13.4600   10.4560  -24.5540 O.3    32  TYR32      -0.2866
     13  N         15.5840   19.2160  -30.9870 N.3    34  ASN34      -0.1240
     14  CA        16.3960   20.2170  -30.3110 C.3    34  ASN34       0.1653
     15  C         16.6160   21.4130  -31.2560 C.2    34  ASN34       0.2266
     16  O         16.7630   21.1170  -32.4530 O.2    34  ASN34      -0.2867
     17  CB        17.8070   19.6250  -30.0160 C.3    34  ASN34       0.1155
     18  CG        17.6200   18.3470  -29.1610 C.2    34  ASN34       0.2627
     19  OD1       16.8470   18.4430  -28.2080 O.2    34  ASN34      -0.2716
     20  ND2       18.3340   17.2700  -29.4620 N.am   34  ASN34      -0.0877
     21  N         19.2820   24.5910  -31.9710 N.3    36  PHE36      -0.1241
     22  CA        20.6090   25.1130  -31.7360 C.3    36  PHE36       0.1605
     23  C         20.7720   26.4830  -32.3930 C.2    36  PHE36       0.2264
     24  O         20.1900   26.6900  -33.4680 O.2    36  PHE36      -0.2867
     25  CB        21.7160   24.1850  -32.2820 C.3    36  PHE36       0.0534
     26  CG        21.7770   22.8770  -31.5110 C.ar   36  PHE36      -0.0203
     27  CD1       22.5360   22.7850  -30.3460 C.ar   36  PHE36      -0.0042
     28  CD2       21.0510   21.7600  -31.9320 C.ar   36  PHE36      -0.0042
     29  CE1       22.5860   21.5900  -29.6360 C.ar   36  PHE36      -0.0003
     30  CE2       21.1090   20.5750  -31.2010 C.ar   36  PHE36      -0.0003
     31  CZ        21.8670   20.4900  -30.0480 C.ar   36  PHE36      -0.0000
     32  N         22.7410   25.2820  -27.2310 N.3    46  LEU46      -0.1301
     33  CA        21.4590   24.5830  -27.2810 C.3    46  LEU46       0.1247
     34  C         20.4230   25.5860  -26.7520 C.3    46  LEU46       0.2009
     35  O         20.7150   26.1000  -25.6740 O.3    46  LEU46      -0.2188
     36  CB        21.4030   23.3800  -26.3450 C.3    46  LEU46       0.0217
     37  CG        20.0210   22.7470  -26.1150 C.3    46  LEU46       0.0015
     38  CD1       19.4620   22.1000  -27.3660 C.3    46  LEU46       0.0000
     39  CD2       20.1840   21.6760  -25.0130 C.3    46  LEU46       0.0000
     40  N         15.2380   21.8770  -25.9730 N.3    49  TYR49      -0.1227
     41  CA        15.3630   20.4440  -26.2160 C.3    49  TYR49       0.1736
     42  C         14.0220   19.7630  -25.9250 C.2    49  TYR49       0.2595
     43  O         13.1420   20.3330  -25.2980 O.2    49  TYR49      -0.2718
     44  CB        16.4560   19.7350  -25.4090 C.3    49  TYR49       0.0548
     45  CG        16.2770   19.7340  -23.9040 C.ar   49  TYR49      -0.0200
     46  CD1       16.6620   20.8380  -23.1620 C.ar   49  TYR49      -0.0009
     47  CD2       15.7520   18.6370  -23.2290 C.ar   49  TYR49      -0.0009
     48  CE1       16.5170   20.8810  -21.7790 C.ar   49  TYR49       0.0417
     49  CE2       15.5910   18.6680  -21.8380 C.ar   49  TYR49       0.0417
     50  CZ        15.9710   19.7770  -21.1340 C.ar   49  TYR49       0.1957
     51  OH        15.8260   19.8110  -19.7670 O.3    49  TYR49      -0.2866
     52  N         13.8310   18.5420  -26.4190 N.am   50  TYR50      -0.1976
     53  CA        12.5840   17.8210  -26.2740 C.3    50  TYR50       0.1639
     54  C         11.4070   18.6900  -26.6860 C.2    50  TYR50       0.2290
     55  O         10.3990   18.7730  -25.9520 O.2    50  TYR50      -0.2864
     56  CB        12.4080   17.2830  -24.8350 C.3    50  TYR50       0.0560
     57  CG        11.4380   16.1020  -24.7340 C.ar   50  TYR50      -0.0198
     58  CD1       11.6940   14.9320  -25.4360 C.ar   50  TYR50      -0.0009
     59  CD2       10.3020   16.1520  -23.9270 C.ar   50  TYR50      -0.0009
     60  CE1       10.8100   13.8700  -25.3660 C.ar   50  TYR50       0.0417
     61  CE2        9.4250   15.0750  -23.8150 C.ar   50  TYR50       0.0417
     62  CZ         9.6990   13.9450  -24.5490 C.ar   50  TYR50       0.1957
     63  OH         8.8650   12.8450  -24.5180 O.3    50  TYR50      -0.2866
     64  N         17.8190   19.5330  -34.6430 N.3    89  GLN89      -0.1245
     65  CA        18.4330   18.2530  -34.5650 C.3    89  GLN89       0.1566
     66  C         17.3950   17.2310  -34.0410 C.2    89  GLN89       0.2260
     67  O         16.7090   17.5910  -33.0780 O.2    89  GLN89      -0.2867
     68  CB        19.6510   18.1990  -33.6340 C.3    89  GLN89       0.0367
     69  CG        20.2660   16.7770  -33.6250 C.3    89  GLN89       0.0905
     70  CD        21.1690   16.5400  -32.4320 C.2    89  GLN89       0.2608
     71  OE1       20.8070   16.6540  -31.2720 O.2    89  GLN89      -0.2717
     72  NE2       22.4430   16.2430  -32.7180 N.am   89  GLN89      -0.0878
     73  N         16.5950   13.8620  -32.0010 N.3    91  GLY91      -0.1210
     74  CA        17.3740   12.9080  -31.2100 C.3    91  GLY91       0.1956
     75  C         16.4760   11.6750  -30.9110 C.2    91  GLY91       0.2612
     76  O         16.6440   11.0560  -29.8710 O.2    91  GLY91      -0.2717
     77  N         15.5290   11.4020  -31.8030 N.am   92  GLY92      -0.1942
     78  CA        14.5720   10.3160  -31.5880 C.3    92  GLY92       0.2014
     79  C         15.1050    8.9560  -32.0430 C.2    92  GLY92       0.2639
     80  O         14.6860    7.9490  -31.4440 O.2    92  GLY92      -0.2714
     81  N         16.0280    8.9250  -32.9810 N.am   93  ALA93      -0.1963
     82  CA        16.5770    7.6400  -33.4520 C.3    93  ALA93       0.1728
     83  C         17.9650    7.7860  -34.0450 C.2    93  ALA93       0.2616
     84  O         18.3320    8.8520  -34.5980 O.2    93  ALA93      -0.2715
     85  CB        15.6190    7.0280  -34.5260 C.3    93  ALA93       0.0334
     86  N         18.8210    6.7420  -33.9640 N.am   94  LEU94      -0.1977
     87  CA        20.1100    6.8480  -34.5950 C.3    94  LEU94       0.1596
     88  C         20.0250    6.5700  -36.0960 C.2    94  LEU94       0.2287
     89  O         19.2020    5.7190  -36.4450 O.2    94  LEU94      -0.2864
     90  CB        21.0810    5.8340  -33.9770 C.3    94  LEU94       0.0297
     91  CG        21.2810    6.0080  -32.4550 C.3    94  LEU94       0.0022
     92  CD1       21.8760    4.6860  -31.9040 C.3    94  LEU94       0.0001
     93  CD2       22.2260    7.1920  -32.2490 C.3    94  LEU94       0.0001
     94  N         21.6380   10.4070  -35.4540 N.3    96  PHE96      -0.1241
     95  CA        21.0350   11.7250  -35.2170 C.3    96  PHE96       0.1605
     96  C         21.2400   12.5440  -36.5060 C.2    96  PHE96       0.2264
     97  O         22.1840   12.2610  -37.2260 O.2    96  PHE96      -0.2867
     98  CB        21.6420   12.4130  -33.9750 C.3    96  PHE96       0.0534
     99  CG        21.3640   11.5970  -32.7110 C.ar   96  PHE96      -0.0203
    100  CD1       20.0920   10.9990  -32.5530 C.ar   96  PHE96      -0.0042
    101  CD2       22.3290   11.3730  -31.7620 C.ar   96  PHE96      -0.0042
    102  CE1       19.8590   10.2010  -31.4490 C.ar   96  PHE96      -0.0003
    103  CE2       22.0800   10.6110  -30.6450 C.ar   96  PHE96      -0.0003
    104  CZ        20.8150   10.0290  -30.4690 C.ar   96  PHE96      -0.0000
@<TRIPOS>BOND
     1    97    96    2
     2    96    95    1
     3    89    88    2
     4    88    87    1
     5    94    95    1
     6    95    98    1
     7    64    65    1
     8    84    83    2
     9    87    90    1
    10    87    86    1
    11    65    66    1
    12    65    68    1
    13    85    82    1
    14    83    86   am
    15    83    82    1
    16    66    67    2
    17    90    91    1
    18    98    99    1
    19    68    69    1
    20    69    70    1
    21    24    23    2
    22    82    81    1
    23    81    79   am
    24    72    70   am
    25    99   100   ar
    26    99   101   ar
    27   100   102   ar
    28    91    93    1
    29    91    92    1
    30    16    15    2
    31    70    71    2
    32    23    22    1
    33    25    22    1
    34    25    26    1
    35    79    78    1
    36    79    80    2
    37    73    74    1
    38    21    22    1
    39    28    26   ar
    40    28    30   ar
    41    77    78    1
    42    77    75   am
    43   101   103   ar
    44    26    27   ar
    45     4     3    2
    46   102   104   ar
    47    15    14    1
    48    74    75    1
    49    30    31   ar
    50    13    14    1
    51    75    76    2
    52   103   104   ar
    53     3     2    1
    54    27    29   ar
    55    14    17    1
    56    31    29   ar
    57    17    18    1
    58     1     2    1
    59    20    18   am
    60     5     2    1
    61     5     6    1
    62    18    19    2
    63     6     8   ar
    64     6     7   ar
    65     8    10   ar
    66    38    37    1
    67    33    32    1
    68    33    34    1
    69    33    36    1
    70     7     9   ar
    71    10    11   ar
    72    34    35    1
    73    54    53    1
    74    54    55    2
    75    52    53    1
    76    52    42   am
    77    36    37    1
    78    53    56    1
    79    41    40    1
    80    41    42    1
    81    41    44    1
    82    37    39    1
    83    42    43    2
    84     9    11   ar
    85    11    12    1
    86    58    60   ar
    87    58    57   ar
    88    44    45    1
    89    60    62   ar
    90    56    57    1
    91    57    59   ar
    92    62    63    1
    93    62    61   ar
    94    59    61   ar
    95    45    47   ar
    96    45    46   ar
    97    47    49   ar
    98    46    48   ar
    99    49    50   ar
   100    48    50   ar
   101    50    51    1
