@<TRIPOS>MOLECULE
tmp/1e4xC00.pdb
 111 107 0 0 0
SMALL
GASTEIGER

@<TRIPOS>ATOM
      1  N        -16.1810    3.6180    8.4350 N.3    32  TYR32      -0.1241
      2  CA       -15.7780    4.4840    9.5360 C.3    32  TYR32       0.1605
      3  C        -15.1430    3.6460   10.6430 C.2    32  TYR32       0.2264
      4  O        -15.7330    3.3220   11.6690 O.2    32  TYR32      -0.2867
      5  CB       -16.9320    5.2920   10.1120 C.3    32  TYR32       0.0534
      6  CG       -17.5200    6.2830    9.1460 C.ar   32  TYR32      -0.0201
      7  CD1      -16.9500    7.5380    8.9680 C.ar   32  TYR32      -0.0009
      8  CD2      -18.6760    5.9800    8.4600 C.ar   32  TYR32      -0.0009
      9  CE1      -17.4950    8.4480    8.0570 C.ar   32  TYR32       0.0417
     10  CE2      -19.2270    6.8670    7.5440 C.ar   32  TYR32       0.0417
     11  CZ       -18.6360    8.0950    7.3620 C.ar   32  TYR32       0.1957
     12  OH       -19.1990    8.9640    6.4330 O.3    32  TYR32      -0.2866
     13  N        -11.6180    3.5650   12.9410 N.3    34  ASN34      -0.1240
     14  CA       -10.4960    4.3060   13.3830 C.3    34  ASN34       0.1653
     15  C         -9.5430    3.4890   14.2690 C.2    34  ASN34       0.2266
     16  O         -9.9600    2.6870   15.0840 O.2    34  ASN34      -0.2867
     17  CB       -10.9440    5.5610   14.1640 C.3    34  ASN34       0.1155
     18  CG       -11.9420    6.3610   13.3620 C.2    34  ASN34       0.2627
     19  OD1      -11.7730    6.7140   12.2010 O.2    34  ASN34      -0.2716
     20  ND2      -13.0960    6.6490   13.9990 N.am   34  ASN34      -0.0877
     21  N         -6.4780    3.7580   17.0610 N.3    36  PHE36      -0.1241
     22  CA        -5.8110    4.5560   18.0430 C.3    36  PHE36       0.1605
     23  C         -4.6190    3.7880   18.6310 C.2    36  PHE36       0.2264
     24  O         -4.6390    2.5660   18.7910 O.2    36  PHE36      -0.2867
     25  CB        -6.7260    4.9610   19.2010 C.3    36  PHE36       0.0534
     26  CG        -7.8470    5.8950   18.7470 C.ar   36  PHE36      -0.0203
     27  CD1       -9.0460    5.4080   18.2720 C.ar   36  PHE36      -0.0042
     28  CD2       -7.6290    7.2520   18.7610 C.ar   36  PHE36      -0.0042
     29  CE1      -10.0240    6.2940   17.8720 C.ar   36  PHE36      -0.0003
     30  CE2       -8.5920    8.1380   18.3430 C.ar   36  PHE36      -0.0003
     31  CZ        -9.8210    7.6660   17.9270 C.ar   36  PHE36      -0.0000
     32  N         -4.5810    9.2750   17.2590 N.3    46  LEU46      -0.1245
     33  CA        -5.3640    8.6570   16.2060 C.3    46  LEU46       0.1561
     34  C         -4.3380    8.3940   15.0800 C.2    46  LEU46       0.2260
     35  O         -3.6910    9.3450   14.6370 O.2    46  LEU46      -0.2867
     36  CB        -6.4550    9.5630   15.6550 C.3    46  LEU46       0.0270
     37  CG        -7.1280    9.1760   14.3300 C.3    46  LEU46       0.0019
     38  CD1       -7.8990    7.8660   14.4090 C.3    46  LEU46       0.0001
     39  CD2       -8.1070   10.3320   14.0120 C.3    46  LEU46       0.0001
     40  N         -7.8160    6.7440   10.1270 N.3    49  TYR49      -0.1227
     41  CA        -9.2800    6.8870   10.2170 C.3    49  TYR49       0.1736
     42  C         -9.8540    6.5680    8.8500 C.2    49  TYR49       0.2595
     43  O         -9.1250    6.4490    7.8280 O.2    49  TYR49      -0.2718
     44  CB        -9.6170    8.2730   10.7550 C.3    49  TYR49       0.0548
     45  CG        -9.0380    9.4320   10.0110 C.ar   49  TYR49      -0.0200
     46  CD1       -9.7350    9.8570    8.8520 C.ar   49  TYR49      -0.0009
     47  CD2       -7.8370    9.9970   10.3350 C.ar   49  TYR49      -0.0009
     48  CE1       -9.2570   10.9520    8.1490 C.ar   49  TYR49       0.0417
     49  CE2       -7.3460   11.1020    9.6220 C.ar   49  TYR49       0.0417
     50  CZ        -8.0780   11.5440    8.5370 C.ar   49  TYR49       0.1957
     51  OH        -7.6220   12.5890    7.7820 O.3    49  TYR49      -0.2866
     52  N        -11.1720    6.3230    8.8680 N.am   50  TYR50      -0.1976
     53  CA       -11.9180    5.9400    7.7120 C.3    50  TYR50       0.1639
     54  C        -11.2110    4.7640    7.0350 C.2    50  TYR50       0.2290
     55  O        -11.0140    4.7520    5.8220 O.2    50  TYR50      -0.2864
     56  CB       -12.1210    7.1260    6.7220 C.3    50  TYR50       0.0560
     57  CG       -13.2500    6.8220    5.7730 C.ar   50  TYR50      -0.0198
     58  CD1      -14.5150    6.5970    6.3480 C.ar   50  TYR50      -0.0009
     59  CD2      -13.1490    6.7460    4.4000 C.ar   50  TYR50      -0.0009
     60  CE1      -15.6060    6.2870    5.5800 C.ar   50  TYR50       0.0417
     61  CE2      -14.2380    6.4390    3.5940 C.ar   50  TYR50       0.0417
     62  CZ       -15.4600    6.2250    4.1980 C.ar   50  TYR50       0.1957
     63  OH       -16.5760    5.9090    3.4840 O.3    50  TYR50      -0.2866
     64  N         -6.9990    5.9250    5.9990 N.3    53  THR53      -0.1218
     65  CA        -6.3950    7.2320    5.8990 C.3    53  THR53       0.1862
     66  C         -5.4510    7.5190    7.0280 C.2    53  THR53       0.2287
     67  O         -5.9200    7.5580    8.1830 O.2    53  THR53      -0.2866
     68  CB        -7.4020    8.4080    5.7650 C.3    53  THR53       0.1770
     69  OG1       -8.0410    8.2400    4.4840 O.3    53  THR53      -0.2211
     70  CG2       -6.6680    9.7260    5.6990 C.3    53  THR53       0.0375
     71  N        -12.0370    2.0650   17.0050 N.3    89  GLN89      -0.1245
     72  CA       -13.3150    2.6860   17.3680 C.3    89  GLN89       0.1566
     73  C        -14.1400    2.7160   16.0790 C.2    89  GLN89       0.2260
     74  O        -13.5900    3.2140   15.0790 O.2    89  GLN89      -0.2867
     75  CB       -13.1430    4.1410   17.7900 C.3    89  GLN89       0.0367
     76  CG       -14.4660    4.7610   18.3580 C.3    89  GLN89       0.0905
     77  CD       -14.3890    6.2770   18.3330 C.2    89  GLN89       0.2608
     78  OE1      -14.0180    6.9600   17.3550 O.2    89  GLN89      -0.2717
     79  NE2      -14.7250    6.9210   19.4250 N.am   89  GLN89      -0.0878
     80  N        -16.9380    4.5340   13.9540 N.3    91  GLY91      -0.1210
     81  CA       -17.5310    5.8760   13.9430 C.3    91  GLY91       0.1956
     82  C        -18.7190    5.8630   12.9960 C.2    91  GLY91       0.2612
     83  O        -19.0430    6.8710   12.3740 O.2    91  GLY91      -0.2717
     84  N        -19.2610    4.6720   12.6930 N.am   92  GLY92      -0.1942
     85  CA       -20.3380    4.5630   11.7140 C.3    92  GLY92       0.2014
     86  C        -21.7290    4.7870   12.3570 C.2    92  GLY92       0.2639
     87  O        -22.6800    5.0750   11.6180 O.2    92  GLY92      -0.2714
     88  N        -21.8080    4.7510   13.6790 N.am   93  ALA93      -0.1963
     89  CA       -23.1140    4.9350   14.3070 C.3    93  ALA93       0.1728
     90  C        -22.9350    5.2880   15.7710 C.2    93  ALA93       0.2616
     91  O        -21.9990    4.9110   16.4120 O.2    93  ALA93      -0.2715
     92  CB       -23.9940    3.6970   14.1360 C.3    93  ALA93       0.0334
     93  N        -23.8940    6.0540   16.2970 N.am   94  LEU94      -0.1977
     94  CA       -23.9140    6.4440   17.6960 C.3    94  LEU94       0.1596
     95  C        -24.6560    5.3520   18.4630 C.2    94  LEU94       0.2287
     96  O        -25.4920    4.6990   17.8800 O.2    94  LEU94      -0.2864
     97  CB       -24.7620    7.7210   17.8450 C.3    94  LEU94       0.0297
     98  CG       -24.1650    8.9680   17.1920 C.3    94  LEU94       0.0022
     99  CD1      -25.2330   10.0840   17.2300 C.3    94  LEU94       0.0001
    100  CD2      -22.8940    9.3560   17.9350 C.3    94  LEU94       0.0001
    101  N        -20.7440    5.9170   19.6180 N.3    96  PHE96      -0.1241
    102  CA       -19.5270    5.2820   19.1240 C.3    96  PHE96       0.1605
    103  C        -19.0020    4.2500   20.1010 C.2    96  PHE96       0.2264
    104  O        -19.1300    4.4220   21.3300 O.2    96  PHE96      -0.2867
    105  CB       -18.4630    6.3910   18.8820 C.3    96  PHE96       0.0534
    106  CG       -18.9990    7.4260   17.9040 C.ar   96  PHE96      -0.0203
    107  CD1      -19.5310    7.0230   16.6950 C.ar   96  PHE96      -0.0042
    108  CD2      -18.8780    8.7770   18.2010 C.ar   96  PHE96      -0.0042
    109  CE1      -19.9790    7.9860   15.8060 C.ar   96  PHE96      -0.0003
    110  CE2      -19.3260    9.7440   17.3070 C.ar   96  PHE96      -0.0003
    111  CZ       -19.8860    9.3220   16.1090 C.ar   96  PHE96      -0.0000
@<TRIPOS>BOND
     1    63    62    1
     2    61    62   ar
     3    61    59   ar
     4    62    60   ar
     5    59    57   ar
     6    69    68    1
     7    60    58   ar
     8    70    68    1
     9    68    65    1
    10    57    58   ar
    11    57    56    1
    12    55    54    2
    13    65    64    1
    14    65    66    1
    15    12    11    1
    16    56    53    1
    17    66    67    2
    18    54    53    1
    19    11    10   ar
    20    11     9   ar
    21    10     8   ar
    22    53    52    1
    23    51    50    1
    24    43    42    2
    25     9     7   ar
    26    48    50   ar
    27    48    46   ar
    28     1     2    1
    29     8     6   ar
    30    50    49   ar
    31    42    52   am
    32    42    41    1
    33    46    45   ar
    34     7     6   ar
    35     6     5    1
    36     2     5    1
    37     2     3    1
    38    49    47   ar
    39    45    47   ar
    40    45    44    1
    41    40    41    1
    42    41    44    1
    43     3     4    2
    44    87    86    2
    45    85    86    1
    46    85    84    1
    47    19    18    2
    48    86    88   am
    49    83    82    2
    50    84    82   am
    51    13    14    1
    52    82    81    1
    53    18    20   am
    54    18    17    1
    55    14    17    1
    56    14    15    1
    57    88    89    1
    58    81    80    1
    59    39    37    1
    60    92    89    1
    61    15    16    2
    62    89    90    1
    63    37    38    1
    64    37    36    1
    65    35    34    2
    66    74    73    2
    67    34    33    1
    68    36    33    1
    69    90    93   am
    70    90    91    2
    71   109   111   ar
    72   109   107   ar
    73    73    72    1
    74   111   110   ar
    75    33    32    1
    76    93    94    1
    77   107   106   ar
    78    71    72    1
    79    21    22    1
    80    98    99    1
    81    98    97    1
    82    98   100    1
    83   110   108   ar
    84    78    77    2
    85    72    75    1
    86    94    97    1
    87    94    95    1
    88    75    76    1
    89    29    31   ar
    90    29    27   ar
    91    96    95    2
    92   106   108   ar
    93   106   105    1
    94    31    30   ar
    95    22    23    1
    96    22    25    1
    97    27    26   ar
    98    77    76    1
    99    77    79   am
   100    30    28   ar
   101    23    24    2
   102    26    28   ar
   103    26    25    1
   104   105   102    1
   105   102   101    1
   106   102   103    1
   107   103   104    2
