@<TRIPOS>MOLECULE
tmp/1e55A00.pdb
 148 147 0 0 0
SMALL
GASTEIGER

@<TRIPOS>ATOM
      1  N         26.0150   -2.2160   17.5980 N.3    29  GLN29      -0.1245
      2  CA        26.9220   -3.1520   18.2370 C.3    29  GLN29       0.1566
      3  C         26.7310   -4.6320   17.8910 C.2    29  GLN29       0.2260
      4  O         27.6910   -5.3970   17.9040 O.2    29  GLN29      -0.2867
      5  CB        26.8590   -2.9690   19.7560 C.3    29  GLN29       0.0367
      6  CG        27.4440   -1.6370   20.2100 C.3    29  GLN29       0.0905
      7  CD        27.3150   -1.4180   21.6980 C.2    29  GLN29       0.2608
      8  OE1       26.2580   -1.0200   22.1880 O.2    29  GLN29      -0.2717
      9  NE2       28.3880   -1.6910   22.4300 N.am   29  GLN29      -0.0878
     10  N         20.3530    4.8540   19.6280 N.3   133  HIS133     -0.1226
     11  CA        21.5300    4.5010   20.3810 C.3   133  HIS133      0.1752
     12  C         22.7990    4.8820   19.6190 C.2   133  HIS133      0.2596
     13  O         23.5950    4.0260   19.2270 O.2   133  HIS133     -0.2718
     14  CB        21.5270    3.0130   20.7440 C.3   133  HIS133      0.0759
     15  CG        22.5240    2.6530   21.8040 C.ar  133  HIS133      0.0818
     16  ND1       22.2220    1.8240   22.8620 N.ar  133  HIS133     -0.2268
     17  CD2       23.8250    3.0030   21.9620 C.ar  133  HIS133      0.1154
     18  CE1       23.2910    1.6770   23.6250 C.ar  133  HIS133      0.1986
     19  NE2       24.2780    2.3820   23.1010 N.ar  133  HIS133     -0.2212
     20  N         22.9400    6.1870   19.3840 N.am  134  TRP134     -0.1976
     21  CA        24.1130    6.7770   18.7500 C.3   134  TRP134      0.1640
     22  C         24.3010    6.6290   17.2440 C.2   134  TRP134      0.2290
     23  O         25.2030    7.2320   16.6820 O.2   134  TRP134     -0.2864
     24  CB        25.3780    6.2680   19.4560 C.3   134  TRP134      0.0576
     25  CG        25.2880    6.2950   20.9500 C.ar  134  TRP134      0.0006
     26  CD1       24.3580    6.9530   21.7080 C.ar  134  TRP134      0.0946
     27  CD2       26.1840    5.6660   21.8720 C.ar  134  TRP134      0.0152
     28  NE1       24.6230    6.7730   23.0440 N.ar  134  TRP134     -0.2442
     29  CE2       25.7380    5.9860   23.1730 C.ar  134  TRP134      0.0810
     30  CE3       27.3220    4.8610   21.7260 C.ar  134  TRP134      0.0012
     31  CZ2       26.3910    5.5270   24.3230 C.ar  134  TRP134      0.0191
     32  CZ3       27.9680    4.4060   22.8670 C.ar  134  TRP134      0.0001
     33  CH2       27.5000    4.7410   24.1480 C.ar  134  TRP134      0.0015
     34  N         22.0000    6.8130   26.9550 N.3   182  ASP182     -0.1239
     35  CA        23.2970    7.4140   27.2310 C.3   182  ASP182      0.1674
     36  C         23.5430    8.7150   26.4780 C.2   182  ASP182      0.2266
     37  O         24.5360    8.8470   25.7650 O.2   182  ASP182     -0.2867
     38  CB        24.4340    6.4410   26.8960 C.3   182  ASP182      0.1410
     39  CG        24.3080    5.1210   27.6200 C.2   182  ASP182      0.3668
     40  OD1       23.9940    5.1310   28.8250 O.co2 182  ASP182     -0.2456
     41  OD2       24.5360    4.0670   26.9870 O.co2 182  ASP182     -0.2456
     42  N         27.0380   10.2630   27.4850 N.3   185  THR185     -0.1218
     43  CA        28.2200    9.6600   26.8760 C.3   185  THR185      0.1862
     44  C         28.2910   10.0390   25.3990 C.2   185  THR185      0.2287
     45  O         29.3510   10.3830   24.8810 O.2   185  THR185     -0.2866
     46  CB        28.2070    8.1230   27.0110 C.3   185  THR185      0.1770
     47  OG1       28.1540    7.7680   28.4000 O.3   185  THR185     -0.2211
     48  CG2       29.4660    7.5280   26.3990 C.3   185  THR185      0.0375
     49  N         23.2390    7.3350   31.2040 N.3   252  ASP252     -0.1239
     50  CA        24.4590    6.6580   31.6030 C.3   252  ASP252      0.1674
     51  C         24.8440    7.4290   32.8630 C.2   252  ASP252      0.2266
     52  O         24.7570    8.6570   32.8990 O.2   252  ASP252     -0.2867
     53  CB        25.5390    6.8180   30.5320 C.3   252  ASP252      0.1410
     54  CG        25.8320    8.2740   30.2090 C.2   252  ASP252      0.3668
     55  OD1       26.6620    8.8920   30.9150 O.co2 252  ASP252     -0.2456
     56  OD2       25.2220    8.8040   29.2520 O.co2 252  ASP252     -0.2456
     57  N         21.7660    3.5030   33.3300 N.3   322  ASN322     -0.1240
     58  CA        22.8280    2.5990   32.9020 C.3   322  ASN322      0.1653
     59  C         23.9650    2.8070   33.8770 C.2   322  ASN322      0.2266
     60  O         24.7010    3.7950   33.7990 O.2   322  ASN322     -0.2867
     61  CB        23.2780    2.9120   31.4780 C.3   322  ASN322      0.1155
     62  CG        22.1550    2.7680   30.4820 C.2   322  ASN322      0.2627
     63  OD1       21.2880    1.9050   30.6370 O.2   322  ASN322     -0.2716
     64  ND2       22.1630    3.6010   29.4490 N.am  322  ASN322     -0.0877
     65  N         27.4300    1.3310   35.8550 N.3   324  TYR324     -0.1241
     66  CA        28.5430    0.3960   35.8120 C.3   324  TYR324      0.1605
     67  C         29.5180    0.5900   36.9570 C.2   324  TYR324      0.2264
     68  O         30.0000   -0.3760   37.5530 O.2   324  TYR324     -0.2867
     69  CB        29.3230    0.5410   34.5060 C.3   324  TYR324      0.0534
     70  CG        28.5490    0.1620   33.2660 C.ar  324  TYR324     -0.0201
     71  CD1       27.6960    1.0710   32.6430 C.ar  324  TYR324     -0.0009
     72  CD2       28.6770   -1.1080   32.7100 C.ar  324  TYR324     -0.0009
     73  CE1       26.9930    0.7220   31.4910 C.ar  324  TYR324      0.0417
     74  CE2       27.9770   -1.4690   31.5630 C.ar  324  TYR324      0.0417
     75  CZ        27.1410   -0.5520   30.9590 C.ar  324  TYR324      0.1957
     76  OH        26.4630   -0.9090   29.8150 O.3   324  TYR324     -0.2866
     77  N         38.0050    1.1700   32.7470 N.3   369  TRP369     -0.1241
     78  CA        37.2250    2.0350   33.6150 C.3   369  TRP369      0.1605
     79  C         36.2470    1.4650   34.6230 C.2   369  TRP369      0.2264
     80  O         35.8060    2.1950   35.5050 O.2   369  TRP369     -0.2867
     81  CB        36.4540    3.0140   32.7400 C.3   369  TRP369      0.0550
     82  CG        35.5110    2.3130   31.8170 C.ar  369  TRP369      0.0003
     83  CD1       35.8270    1.6300   30.6730 C.ar  369  TRP369      0.0946
     84  CD2       34.0950    2.2060   31.9700 C.ar  369  TRP369      0.0152
     85  NE1       34.6900    1.1070   30.1050 N.ar  369  TRP369     -0.2442
     86  CE2       33.6120    1.4450   30.8810 C.ar  369  TRP369      0.0810
     87  CE3       33.1840    2.6810   32.9230 C.ar  369  TRP369      0.0012
     88  CZ2       32.2550    1.1460   30.7180 C.ar  369  TRP369      0.0191
     89  CZ3       31.8340    2.3870   32.7630 C.ar  369  TRP369      0.0001
     90  CH2       31.3820    1.6240   31.6660 C.ar  369  TRP369      0.0015
     91  N         21.0690   -1.0280   31.9170 N.3   397  GLU397     -0.1245
     92  CA        22.3930   -1.5420   31.5780 C.3   397  GLU397      0.1567
     93  C         23.1910   -1.7460   32.8450 C.2   397  GLU397      0.2260
     94  O         23.1850   -0.8920   33.7270 O.2   397  GLU397     -0.2867
     95  CB        23.1850   -0.5720   30.6950 C.3   397  GLU397      0.0388
     96  CG        22.7060   -0.4230   29.2720 C.3   397  GLU397      0.1160
     97  CD        23.6380    0.4440   28.4520 C.2   397  GLU397      0.3649
     98  OE1       24.7840    0.6790   28.9030 O.co2 397  GLU397     -0.2457
     99  OE2       23.2290    0.8870   27.3600 O.co2 397  GLU397     -0.2457
    100  N         23.6860   -5.7800   31.0100 N.3   448  TRP448     -0.1241
    101  CA        24.1410   -5.1920   29.7670 C.3   448  TRP448      0.1605
    102  C         24.9390   -6.1340   28.9200 C.2   448  TRP448      0.2264
    103  O         25.9930   -6.6530   29.3170 O.2   448  TRP448     -0.2867
    104  CB        24.9660   -3.9250   29.9320 C.3   448  TRP448      0.0550
    105  CG        25.6160   -3.5510   28.6060 C.ar  448  TRP448      0.0003
    106  CD1       26.9490   -3.5690   28.3140 C.ar  448  TRP448      0.0946
    107  CD2       24.9470   -3.1560   27.3900 C.ar  448  TRP448      0.0152
    108  NE1       27.1550   -3.2070   26.9990 N.ar  448  TRP448     -0.2442
    109  CE2       25.9450   -2.9490   26.4110 C.ar  448  TRP448      0.0810
    110  CE3       23.6030   -2.9570   27.0370 C.ar  448  TRP448      0.0012
    111  CZ2       25.6440   -2.5500   25.1010 C.ar  448  TRP448      0.0191
    112  CZ3       23.3010   -2.5590   25.7320 C.ar  448  TRP448      0.0001
    113  CH2       24.3220   -2.3600   24.7810 C.ar  448  TRP448      0.0015
    114  N         32.4440   -2.8970   20.6760 N.3   455  GLU455     -0.1231
    115  CA        32.4300   -1.9660   21.7970 C.3   455  GLU455      0.1699
    116  C         32.9170   -0.5620   21.4680 C.2   455  GLU455      0.2592
    117  O         33.7700   -0.0090   22.1640 O.2   455  GLU455     -0.2718
    118  CB        33.2370   -2.5430   22.9610 C.3   455  GLU455      0.0402
    119  CG        32.6030   -3.7950   23.5340 C.3   455  GLU455      0.1161
    120  CD        31.2080   -3.5310   24.0820 C.2   455  GLU455      0.3649
    121  OE1       30.8670   -2.3470   24.3240 O.co2 455  GLU455     -0.2457
    122  OE2       30.4530   -4.5070   24.2800 O.co2 455  GLU455     -0.2457
    123  N         32.3600    0.0000   20.4010 N.am  456  TRP456     -0.1976
    124  CA        32.6890    1.3480   19.9670 C.3   456  TRP456      0.1640
    125  C         34.1890    1.5520   19.7590 C.2   456  TRP456      0.2290
    126  O         34.8170    0.7600   19.0560 O.2   456  TRP456     -0.2864
    127  CB        32.1130    2.3470   20.9720 C.3   456  TRP456      0.0576
    128  CG        30.6590    2.0680   21.2730 C.ar  456  TRP456      0.0006
    129  CD1       30.1410    1.5800   22.4420 C.ar  456  TRP456      0.0946
    130  CD2       29.5480    2.2070   20.3730 C.ar  456  TRP456      0.0152
    131  NE1       28.7770    1.4070   22.3240 N.ar  456  TRP456     -0.2442
    132  CE2       28.3900    1.7820   21.0660 C.ar  456  TRP456      0.0810
    133  CE3       29.4180    2.6460   19.0490 C.ar  456  TRP456      0.0012
    134  CZ2       27.1210    1.7870   20.4790 C.ar  456  TRP456      0.0191
    135  CZ3       28.1500    2.6490   18.4650 C.ar  456  TRP456      0.0001
    136  CH2       27.0230    2.2230   19.1810 C.ar  456  TRP456      0.0015
    137  N         31.4320   -7.9990   26.5750 N.3   464  TYR464     -0.1241
    138  CA        30.4710   -7.5920   27.5970 C.3   464  TYR464      0.1605
    139  C         29.2740   -8.5340   27.7200 C.2   464  TYR464      0.2264
    140  O         28.4400   -8.3600   28.5990 O.2   464  TYR464     -0.2867
    141  CB        29.9260   -6.1950   27.2840 C.3   464  TYR464      0.0534
    142  CG        30.7420   -5.0380   27.8090 C.ar  464  TYR464     -0.0201
    143  CD1       31.8310   -4.5370   27.0970 C.ar  464  TYR464     -0.0009
    144  CD2       30.4060   -4.4270   29.0150 C.ar  464  TYR464     -0.0009
    145  CE1       32.5640   -3.4430   27.5750 C.ar  464  TYR464      0.0417
    146  CE2       31.1290   -3.3400   29.5010 C.ar  464  TYR464      0.0417
    147  CZ        32.1980   -2.8550   28.7800 C.ar  464  TYR464      0.1957
    148  OH        32.8790   -1.7670   29.2630 O.3   464  TYR464     -0.2866
@<TRIPOS>BOND
     1    23    22    2
     2    22    21    1
     3     1     2    1
     4     3     4    2
     5     3     2    1
     6     2     5    1
     7   135   133   ar
     8   135   136   ar
     9    21    20    1
    10    21    24    1
    11   133   130   ar
    12   126   125    2
    13   136   134   ar
    14    13    12    2
    15    20    12   am
    16    24    25    1
    17    12    11    1
    18    10    11    1
    19     5     6    1
    20   125   124    1
    21   124   123    1
    22   124   127    1
    23     6     7    1
    24   130   132   ar
    25   130   128   ar
    26    11    14    1
    27   123   116   am
    28   134   132   ar
    29   114   115    1
    30    14    15    1
    31    25    26   ar
    32    25    27   ar
    33   127   128    1
    34   132   131   ar
    35   128   129   ar
    36   116   115    1
    37   116   117    2
    38     7     8    2
    39     7     9   am
    40    26    28   ar
    41    30    27   ar
    42    30    32   ar
    43   115   118    1
    44    15    17   ar
    45    15    16   ar
    46    27    29   ar
    47    17    19   ar
    48   131   129   ar
    49    16    18   ar
    50    32    33   ar
    51   118   119    1
    52    28    29   ar
    53    19    18   ar
    54    29    31   ar
    55   119   120    1
    56   120   122   ar
    57   120   121   ar
    58    33    31   ar
    59   113   111   ar
    60   113   112   ar
    61    45    44    2
    62   111   109   ar
    63    44    43    1
    64   112   110   ar
    65    37    36    2
    66    48    46    1
    67   109   108   ar
    68   109   107   ar
    69    36    35    1
    70   137   138    1
    71    43    46    1
    72    43    42    1
    73    38    35    1
    74    38    39    1
    75    34    35    1
    76    41    39   ar
    77   108   106   ar
    78    46    47    1
    79   110   107   ar
    80   143   145   ar
    81   143   142   ar
    82   141   138    1
    83   141   142    1
    84    99    97   ar
    85   107   105   ar
    86   145   147   ar
    87   138   139    1
    88    39    40   ar
    89   139   140    2
    90   142   144   ar
    91   106   105   ar
    92    97    98   ar
    93    97    96    1
    94   105   104    1
    95   147   148    1
    96   147   146   ar
    97   102   103    2
    98   102   101    1
    99   144   146   ar
   100    56    54   ar
   101    96    95    1
   102    64    62   am
   103   101   104    1
   104   101   100    1
   105    76    75    1
   106    85    83   ar
   107    85    86   ar
   108    54    53    1
   109    54    55   ar
   110    62    63    2
   111    62    61    1
   112    53    50    1
   113    83    82   ar
   114    95    92    1
   115    88    86   ar
   116    88    90   ar
   117    86    84   ar
   118    75    73   ar
   119    75    74   ar
   120    49    50    1
   121    61    58    1
   122    73    71   ar
   123    74    72   ar
   124    92    91    1
   125    92    93    1
   126    50    51    1
   127    90    89   ar
   128    82    84   ar
   129    82    81    1
   130    84    87   ar
   131    71    70   ar
   132    72    70   ar
   133    81    78    1
   134    77    78    1
   135    89    87   ar
   136    93    94    2
   137    51    52    2
   138    58    57    1
   139    58    59    1
   140    70    69    1
   141    78    79    1
   142    60    59    2
   143    69    66    1
   144    79    80    2
   145    66    65    1
   146    66    67    1
   147    67    68    2
