@<TRIPOS>MOLECULE
tmp/1e55A01.pdb
 161 162 0 0 0
SMALL
GASTEIGER

@<TRIPOS>ATOM
      1  N         22.9400    6.1870   19.3840 N.3   134  TRP134     -0.1241
      2  CA        24.1130    6.7770   18.7500 C.3   134  TRP134      0.1605
      3  C         24.3010    6.6290   17.2440 C.2   134  TRP134      0.2264
      4  O         25.2030    7.2320   16.6820 O.2   134  TRP134     -0.2867
      5  CB        25.3780    6.2680   19.4560 C.3   134  TRP134      0.0550
      6  CG        25.2880    6.2950   20.9500 C.ar  134  TRP134      0.0003
      7  CD1       24.3580    6.9530   21.7080 C.ar  134  TRP134      0.0946
      8  CD2       26.1840    5.6660   21.8720 C.ar  134  TRP134      0.0152
      9  NE1       24.6230    6.7730   23.0440 N.ar  134  TRP134     -0.2442
     10  CE2       25.7380    5.9860   23.1730 C.ar  134  TRP134      0.0810
     11  CE3       27.3220    4.8610   21.7260 C.ar  134  TRP134      0.0012
     12  CZ2       26.3910    5.5270   24.3230 C.ar  134  TRP134      0.0191
     13  CZ3       27.9680    4.4060   22.8670 C.ar  134  TRP134      0.0001
     14  CH2       27.5000    4.7410   24.1480 C.ar  134  TRP134      0.0015
     15  N         24.4760   11.5250   27.6550 N.3   184  GLN184     -0.1231
     16  CA        25.6730   12.1690   28.1690 C.3   184  GLN184      0.1698
     17  C         26.9310   11.5870   27.5330 C.2   184  GLN184      0.2592
     18  O         27.7980   12.3310   27.0790 O.2   184  GLN184     -0.2718
     19  CB        25.7470   12.0510   29.6950 C.3   184  GLN184      0.0381
     20  CG        26.8250   12.9470   30.3130 C.3   184  GLN184      0.0905
     21  CD        28.2250   12.3830   30.1670 C.2   184  GLN184      0.2608
     22  OE1       29.1990   13.1290   30.0830 O.2   184  GLN184     -0.2717
     23  NE2       28.3340   11.0580   30.1490 N.am  184  GLN184     -0.0878
     24  N         27.0380   10.2630   27.4850 N.am  185  THR185     -0.1953
     25  CA        28.2200    9.6600   26.8760 C.3   185  THR185      0.1897
     26  C         28.2910   10.0390   25.3990 C.2   185  THR185      0.2313
     27  O         29.3510   10.3830   24.8810 O.2   185  THR185     -0.2863
     28  CB        28.2070    8.1230   27.0110 C.3   185  THR185      0.1794
     29  OG1       28.1540    7.7680   28.4000 O.3   185  THR185     -0.2208
     30  CG2       29.4660    7.5280   26.3990 C.3   185  THR185      0.0378
     31  N         31.4350   12.1970   24.4010 N.3   189  PHE189     -0.1241
     32  CA        32.4280   11.4330   23.6660 C.3   189  PHE189      0.1605
     33  C         32.4730   11.7290   22.1830 C.2   189  PHE189      0.2264
     34  O         33.5290   11.6240   21.5570 O.2   189  PHE189     -0.2867
     35  CB        32.2090    9.9350   23.8730 C.3   189  PHE189      0.0534
     36  CG        32.7030    9.4250   25.1990 C.ar  189  PHE189     -0.0203
     37  CD1       32.9310   10.2980   26.2590 C.ar  189  PHE189     -0.0042
     38  CD2       32.9470    8.0640   25.3860 C.ar  189  PHE189     -0.0042
     39  CE1       33.3940    9.8270   27.4870 C.ar  189  PHE189     -0.0003
     40  CE2       33.4110    7.5820   26.6140 C.ar  189  PHE189     -0.0003
     41  CZ        33.6340    8.4660   27.6640 C.ar  189  PHE189     -0.0000
     42  N         34.1990    9.1410   19.9620 N.3   196  PHE196     -0.1241
     43  CA        33.0120    8.5520   19.3470 C.3   196  PHE196      0.1605
     44  C         32.7810    9.2620   18.0270 C.2   196  PHE196      0.2264
     45  O         33.2490   10.3870   17.8310 O.2   196  PHE196     -0.2867
     46  CB        31.7780    8.7580   20.2330 C.3   196  PHE196      0.0534
     47  CG        31.5820    7.6980   21.2820 C.ar  196  PHE196     -0.0203
     48  CD1       32.5150    6.6860   21.4680 C.ar  196  PHE196     -0.0042
     49  CD2       30.4400    7.7120   22.0800 C.ar  196  PHE196     -0.0042
     50  CE1       32.3140    5.7000   22.4300 C.ar  196  PHE196     -0.0003
     51  CE2       30.2250    6.7380   23.0440 C.ar  196  PHE196     -0.0003
     52  CZ        31.1600    5.7260   23.2240 C.ar  196  PHE196     -0.0000
     53  N         23.2390    7.3350   31.2040 N.3   252  ASP252     -0.1239
     54  CA        24.4590    6.6580   31.6030 C.3   252  ASP252      0.1674
     55  C         24.8440    7.4290   32.8630 C.2   252  ASP252      0.2266
     56  O         24.7570    8.6570   32.8990 O.2   252  ASP252     -0.2867
     57  CB        25.5390    6.8180   30.5320 C.3   252  ASP252      0.1410
     58  CG        25.8320    8.2740   30.2090 C.2   252  ASP252      0.3668
     59  OD1       26.6620    8.8920   30.9150 O.co2 252  ASP252     -0.2456
     60  OD2       25.2220    8.8040   29.2520 O.co2 252  ASP252     -0.2456
     61  N         27.5710    7.4140   36.5050 N.3   254  MET254     -0.1245
     62  CA        28.5630    6.8650   37.4140 C.3   254  MET254      0.1570
     63  C         28.2390    7.4480   38.7760 C.2   254  MET254      0.2261
     64  O         27.9770    8.6470   38.8880 O.2   254  MET254     -0.2867
     65  CB        29.9750    7.3010   37.0250 C.3   254  MET254      0.0387
     66  CG        30.5930    6.5390   35.8720 C.3   254  MET254      0.0595
     67  SD        32.3310    6.9930   35.6760 S.3   254  MET254     -0.1393
     68  CE        32.6830    6.2470   34.0880 C.3   254  MET254      0.0692
     69  N         27.4300    1.3310   35.8550 N.3   324  TYR324     -0.1241
     70  CA        28.5430    0.3960   35.8120 C.3   324  TYR324      0.1605
     71  C         29.5180    0.5900   36.9570 C.2   324  TYR324      0.2264
     72  O         30.0000   -0.3760   37.5530 O.2   324  TYR324     -0.2867
     73  CB        29.3230    0.5410   34.5060 C.3   324  TYR324      0.0534
     74  CG        28.5490    0.1620   33.2660 C.ar  324  TYR324     -0.0201
     75  CD1       27.6960    1.0710   32.6430 C.ar  324  TYR324     -0.0009
     76  CD2       28.6770   -1.1080   32.7100 C.ar  324  TYR324     -0.0009
     77  CE1       26.9930    0.7220   31.4910 C.ar  324  TYR324      0.0417
     78  CE2       27.9770   -1.4690   31.5630 C.ar  324  TYR324      0.0417
     79  CZ        27.1410   -0.5520   30.9590 C.ar  324  TYR324      0.1957
     80  OH        26.4630   -0.9090   29.8150 O.3   324  TYR324     -0.2866
     81  N         39.5240   -0.7890   31.2180 N.3   368  PRO368     -0.2102
     82  CA        40.1080    0.4580   31.7250 C.3   368  PRO368      0.1504
     83  C         39.3250    1.2990   32.7300 C.2   368  PRO368      0.2575
     84  O         39.9200    2.0520   33.5030 O.2   368  PRO368     -0.2718
     85  CB        40.3750    1.2540   30.4470 C.3   368  PRO368      0.0282
     86  CG        40.5920    0.1800   29.4160 C.3   368  PRO368      0.0208
     87  CD        39.4870   -0.7780   29.7450 C.3   368  PRO368      0.0893
     88  N         38.0050    1.1700   32.7470 N.am  369  TRP369     -0.1977
     89  CA        37.2250    2.0350   33.6150 C.3   369  TRP369      0.1640
     90  C         36.2470    1.4650   34.6230 C.2   369  TRP369      0.2290
     91  O         35.8060    2.1950   35.5050 O.2   369  TRP369     -0.2864
     92  CB        36.4540    3.0140   32.7400 C.3   369  TRP369      0.0576
     93  CG        35.5110    2.3130   31.8170 C.ar  369  TRP369      0.0006
     94  CD1       35.8270    1.6300   30.6730 C.ar  369  TRP369      0.0946
     95  CD2       34.0950    2.2060   31.9700 C.ar  369  TRP369      0.0152
     96  NE1       34.6900    1.1070   30.1050 N.ar  369  TRP369     -0.2442
     97  CE2       33.6120    1.4450   30.8810 C.ar  369  TRP369      0.0810
     98  CE3       33.1840    2.6810   32.9230 C.ar  369  TRP369      0.0012
     99  CZ2       32.2550    1.1460   30.7180 C.ar  369  TRP369      0.0191
    100  CZ3       31.8340    2.3870   32.7630 C.ar  369  TRP369      0.0001
    101  CH2       31.3820    1.6240   31.6660 C.ar  369  TRP369      0.0015
    102  N         32.4440   -2.8970   20.6760 N.3   455  GLU455     -0.1231
    103  CA        32.4300   -1.9660   21.7970 C.3   455  GLU455      0.1699
    104  C         32.9170   -0.5620   21.4680 C.2   455  GLU455      0.2592
    105  O         33.7700   -0.0090   22.1640 O.2   455  GLU455     -0.2718
    106  CB        33.2370   -2.5430   22.9610 C.3   455  GLU455      0.0402
    107  CG        32.6030   -3.7950   23.5340 C.3   455  GLU455      0.1161
    108  CD        31.2080   -3.5310   24.0820 C.2   455  GLU455      0.3649
    109  OE1       30.8670   -2.3470   24.3240 O.co2 455  GLU455     -0.2457
    110  OE2       30.4530   -4.5070   24.2800 O.co2 455  GLU455     -0.2457
    111  N         32.3600    0.0000   20.4010 N.am  456  TRP456     -0.1962
    112  CA        32.6890    1.3480   19.9670 C.3   456  TRP456      0.1771
    113  C         34.1890    1.5520   19.7590 C.2   456  TRP456      0.2620
    114  O         34.8170    0.7600   19.0560 O.2   456  TRP456     -0.2715
    115  CB        32.1130    2.3470   20.9720 C.3   456  TRP456      0.0590
    116  CG        30.6590    2.0680   21.2730 C.ar  456  TRP456      0.0006
    117  CD1       30.1410    1.5800   22.4420 C.ar  456  TRP456      0.0946
    118  CD2       29.5480    2.2070   20.3730 C.ar  456  TRP456      0.0152
    119  NE1       28.7770    1.4070   22.3240 N.ar  456  TRP456     -0.2442
    120  CE2       28.3900    1.7820   21.0660 C.ar  456  TRP456      0.0810
    121  CE3       29.4180    2.6460   19.0490 C.ar  456  TRP456      0.0012
    122  CZ2       27.1210    1.7870   20.4790 C.ar  456  TRP456      0.0191
    123  CZ3       28.1500    2.6490   18.4650 C.ar  456  TRP456      0.0001
    124  CH2       27.0230    2.2230   19.1810 C.ar  456  TRP456      0.0015
    125  N         34.7760    2.5840   20.3620 N.am  457  PHE457     -0.1960
    126  CA        36.2010    2.8180   20.1470 C.3   457  PHE457      0.1771
    127  C         37.0810    1.6890   20.6700 C.2   457  PHE457      0.2619
    128  O         38.2530    1.5970   20.3140 O.2   457  PHE457     -0.2715
    129  CB        36.6480    4.1610   20.7410 C.3   457  PHE457      0.0574
    130  CG        36.6090    4.2190   22.2450 C.ar  457  PHE457     -0.0200
    131  CD1       37.5880    3.5860   23.0060 C.ar  457  PHE457     -0.0042
    132  CD2       35.6170    4.9390   22.8990 C.ar  457  PHE457     -0.0042
    133  CE1       37.5860    3.6720   24.3930 C.ar  457  PHE457     -0.0003
    134  CE2       35.6000    5.0340   24.2910 C.ar  457  PHE457     -0.0003
    135  CZ        36.5900    4.3970   25.0390 C.ar  457  PHE457     -0.0000
    136  N         36.5140    0.8260   21.5060 N.am  458  ALA458     -0.1977
    137  CA        37.2640   -0.2980   22.0440 C.3   458  ALA458      0.1597
    138  C         37.1620   -1.4860   21.0930 C.2   458  ALA458      0.2287
    139  O         37.7530   -2.5360   21.3410 O.2   458  ALA458     -0.2864
    140  CB        36.7350   -0.6840   23.4160 C.3   458  ALA458      0.0319
    141  N         36.8500   -6.0790   24.0520 N.3   462  GLU462     -0.1245
    142  CA        36.1380   -6.3900   25.2810 C.3   462  GLU462      0.1567
    143  C         34.8640   -7.1590   25.0160 C.2   462  GLU462      0.2260
    144  O         34.1020   -6.8230   24.1100 O.2   462  GLU462     -0.2867
    145  CB        35.7900   -5.1120   26.0470 C.3   462  GLU462      0.0388
    146  CG        36.9770   -4.3930   26.6600 C.3   462  GLU462      0.1160
    147  CD        36.5780   -3.0760   27.3010 C.2   462  GLU462      0.3649
    148  OE1       35.5820   -3.0600   28.0540 O.co2 462  GLU462     -0.2457
    149  OE2       37.2630   -2.0590   27.0620 O.co2 462  GLU462     -0.2457
    150  N         31.4320   -7.9990   26.5750 N.3   464  TYR464     -0.1241
    151  CA        30.4710   -7.5920   27.5970 C.3   464  TYR464      0.1605
    152  C         29.2740   -8.5340   27.7200 C.2   464  TYR464      0.2264
    153  O         28.4400   -8.3600   28.5990 O.2   464  TYR464     -0.2867
    154  CB        29.9260   -6.1950   27.2840 C.3   464  TYR464      0.0534
    155  CG        30.7420   -5.0380   27.8090 C.ar  464  TYR464     -0.0201
    156  CD1       31.8310   -4.5370   27.0970 C.ar  464  TYR464     -0.0009
    157  CD2       30.4060   -4.4270   29.0150 C.ar  464  TYR464     -0.0009
    158  CE1       32.5640   -3.4430   27.5750 C.ar  464  TYR464      0.0417
    159  CE2       31.1290   -3.3400   29.5010 C.ar  464  TYR464      0.0417
    160  CZ        32.1980   -2.8550   28.7800 C.ar  464  TYR464      0.1957
    161  OH        32.8790   -1.7670   29.2630 O.3   464  TYR464     -0.2866
@<TRIPOS>BOND
     1     4     3    2
     2     3     2    1
     3    45    44    2
     4    44    43    1
     5   123   121   ar
     6   123   124   ar
     7     2     1    1
     8     2     5    1
     9   121   118   ar
    10   114   113    2
    11   124   122   ar
    12    43    42    1
    13    43    46    1
    14     5     6    1
    15   113   112    1
    16   113   125   am
    17   112   111    1
    18   112   115    1
    19   126   125    1
    20   126   127    1
    21   126   129    1
    22    46    47    1
    23   128   127    2
    24   118   120   ar
    25   118   116   ar
    26   111   104   am
    27   122   120   ar
    28   127   136   am
    29   102   103    1
    30   129   130    1
    31     6     7   ar
    32     6     8   ar
    33   115   116    1
    34   120   119   ar
    35   138   139    2
    36   138   137    1
    37   116   117   ar
    38    47    48   ar
    39    47    49   ar
    40   104   103    1
    41   104   105    2
    42    48    50   ar
    43   136   137    1
    44    34    33    2
    45     7     9   ar
    46    11     8   ar
    47    11    13   ar
    48   103   106    1
    49     8    10   ar
    50   137   140    1
    51    49    51   ar
    52    33    32    1
    53   130   132   ar
    54   130   131   ar
    55   119   117   ar
    56    50    52   ar
    57    13    14   ar
    58   132   134   ar
    59   106   107    1
    60   131   133   ar
    61    51    52   ar
    62     9    10   ar
    63    10    12   ar
    64   107   108    1
    65    32    35    1
    66    32    31    1
    67    35    36    1
    68   141   142    1
    69   108   110   ar
    70   108   109   ar
    71   144   143    2
    72    14    12   ar
    73   134   135   ar
    74   133   135   ar
    75    27    26    2
    76   143   142    1
    77    36    38   ar
    78    36    37   ar
    79   142   145    1
    80    38    40   ar
    81    26    25    1
    82   145   146    1
    83    37    39   ar
    84    30    28    1
    85   150   151    1
    86    40    41   ar
    87   146   147    1
    88    25    28    1
    89    25    24    1
    90    28    29    1
    91   149   147   ar
    92    18    17    2
    93   156   158   ar
    94   156   155   ar
    95   154   151    1
    96   154   155    1
    97   147   148   ar
    98    24    17   am
    99    39    41   ar
   100    17    16    1
   101   158   160   ar
   102   151   152    1
   103    15    16    1
   104   152   153    2
   105   155   157   ar
   106    16    19    1
   107   160   161    1
   108   160   159   ar
   109   157   159   ar
   110    60    58   ar
   111    86    87    1
   112    86    85    1
   113    19    20    1
   114    87    81    1
   115    80    79    1
   116    22    21    2
   117    96    94   ar
   118    96    97   ar
   119    23    21   am
   120    21    20    1
   121    58    57    1
   122    58    59   ar
   123    85    82    1
   124    57    54    1
   125    94    93   ar
   126    99    97   ar
   127    99   101   ar
   128    97    95   ar
   129    79    77   ar
   130    79    78   ar
   131    53    54    1
   132    81    82    1
   133    77    75   ar
   134    78    76   ar
   135    54    55    1
   136   101   100   ar
   137    82    83    1
   138    93    95   ar
   139    93    92    1
   140    95    98   ar
   141    75    74   ar
   142    76    74   ar
   143    83    88   am
   144    83    84    2
   145    92    89    1
   146    88    89    1
   147   100    98   ar
   148    55    56    2
   149    74    73    1
   150    89    90    1
   151    68    67    1
   152    73    70    1
   153    90    91    2
   154    67    66    1
   155    70    69    1
   156    70    71    1
   157    66    65    1
   158    61    62    1
   159    71    72    2
   160    65    62    1
   161    62    63    1
   162    63    64    2
