@<TRIPOS>MOLECULE
tmp/1e5dB00.pdb
 101 100 0 0 0
SMALL
GASTEIGER

@<TRIPOS>ATOM
      1  N         38.6830   49.7690   57.9660 N.3    23  HIS23      -0.1241
      2  CA        38.3920   48.5480   58.7050 C.3    23  HIS23       0.1621
      3  C         38.4230   47.2910   57.8480 C.2    23  HIS23       0.2264
      4  O         37.6880   46.3420   58.1100 O.2    23  HIS23      -0.2867
      5  CB        37.0260   48.6830   59.3950 C.3    23  HIS23       0.0745
      6  CG        37.0400   49.8910   60.2890 C.ar   23  HIS23       0.0817
      7  ND1       35.9010   50.4710   60.7970 N.ar   23  HIS23      -0.2268
      8  CD2       38.0690   50.6320   60.7640 C.ar   23  HIS23       0.1154
      9  CE1       36.2240   51.5120   61.5450 C.ar   23  HIS23       0.1986
     10  NE2       37.5400   51.6350   61.5430 N.ar   23  HIS23      -0.2212
     11  N         37.3490   46.4690   54.9740 N.3    25  TYR25      -0.1241
     12  CA        36.3310   45.9920   54.0250 C.3    25  TYR25       0.1605
     13  C         36.0530   47.0130   52.9340 C.2    25  TYR25       0.2264
     14  O         35.7510   46.6500   51.7910 O.2    25  TYR25      -0.2867
     15  CB        35.0450   45.6080   54.7550 C.3    25  TYR25       0.0534
     16  CG        34.2580   46.7330   55.3730 C.ar   25  TYR25      -0.0201
     17  CD1       34.5590   47.2060   56.6440 C.ar   25  TYR25      -0.0009
     18  CD2       33.2020   47.3320   54.6980 C.ar   25  TYR25      -0.0009
     19  CE1       33.8350   48.2370   57.2140 C.ar   25  TYR25       0.0417
     20  CE2       32.4730   48.3630   55.2520 C.ar   25  TYR25       0.0417
     21  CZ        32.7970   48.8100   56.5150 C.ar   25  TYR25       0.1957
     22  OH        32.0840   49.8380   57.0890 O.3    25  TYR25      -0.2866
     23  N         32.0470   47.1270   68.2430 N.3    80  GLU80      -0.1245
     24  CA        33.1220   47.1410   67.2520 C.3    80  GLU80       0.1567
     25  C         34.2890   47.9280   67.8260 C.2    80  GLU80       0.2260
     26  O         34.0940   48.9480   68.5060 O.2    80  GLU80      -0.2867
     27  CB        32.6270   47.7450   65.9450 C.3    80  GLU80       0.0388
     28  CG        33.5110   47.3740   64.7570 C.3    80  GLU80       0.1160
     29  CD        32.7950   47.6420   63.4450 C.2    80  GLU80       0.3649
     30  OE1       31.5430   47.6720   63.4360 O.co2  80  GLU80      -0.2457
     31  OE2       33.4950   47.8370   62.4380 O.co2  80  GLU80      -0.2457
     32  N         34.7170   40.1920   73.1140 N.3   112  HIS112     -0.1241
     33  CA        35.8040   41.0510   72.6560 C.3   112  HIS112      0.1621
     34  C         36.8240   41.3040   73.7580 C.2   112  HIS112      0.2264
     35  O         38.0250   41.3420   73.5160 O.2   112  HIS112     -0.2867
     36  CB        35.2610   42.3930   72.1720 C.3   112  HIS112      0.0745
     37  CG        34.7600   42.3960   70.7660 C.ar  112  HIS112      0.0817
     38  ND1       33.4710   42.0380   70.4410 N.ar  112  HIS112     -0.2268
     39  CD2       35.3700   42.7170   69.6000 C.ar  112  HIS112      0.1154
     40  CE1       33.3100   42.1430   69.1360 C.ar  112  HIS112      0.1986
     41  NE2       34.4480   42.5460   68.5980 N.ar  112  HIS112     -0.2212
     42  N         21.3820   44.8360   64.4840 N.3   143  MET143     -0.1245
     43  CA        21.7430   44.6740   63.0800 C.3   143  MET143      0.1570
     44  C         21.8330   46.0170   62.3740 C.2   143  MET143      0.2261
     45  O         21.7820   46.0670   61.1440 O.2   143  MET143     -0.2867
     46  CB        20.7360   43.7620   62.3810 C.3   143  MET143      0.0387
     47  CG        20.6610   42.3680   62.9960 C.3   143  MET143      0.0595
     48  SD        22.2880   41.8250   63.5560 S.3   143  MET143     -0.1393
     49  CE        23.1040   41.5560   61.9830 C.3   143  MET143      0.0692
     50  N         24.7640   48.3580   62.6330 N.3   145  HIS145     -0.1226
     51  CA        24.8830   47.2700   61.6810 C.3   145  HIS145      0.1752
     52  C         25.3310   46.0000   62.3860 C.2   145  HIS145      0.2596
     53  O         25.6720   45.0100   61.7440 O.2   145  HIS145     -0.2718
     54  CB        25.8920   47.6250   60.5700 C.3   145  HIS145      0.0759
     55  CG        27.2550   47.8150   61.1770 C.ar  145  HIS145      0.0818
     56  ND1       28.2210   46.8360   61.2150 N.ar  145  HIS145     -0.2268
     57  CD2       27.7950   48.8910   61.7960 C.ar  145  HIS145      0.1154
     58  CE1       29.3000   47.3130   61.8180 C.ar  145  HIS145      0.1986
     59  NE2       29.0680   48.5590   62.1840 N.ar  145  HIS145     -0.2212
     60  N         25.3400   46.0380   63.7160 N.am  146  TRP146     -0.1976
     61  CA        25.6520   44.8320   64.4790 C.3   146  TRP146      0.1640
     62  C         24.5020   44.5000   65.4200 C.2   146  TRP146      0.2290
     63  O         23.6720   45.3700   65.7010 O.2   146  TRP146     -0.2864
     64  CB        26.9420   44.9830   65.2780 C.3   146  TRP146      0.0576
     65  CG        28.1830   44.6300   64.5180 C.ar  146  TRP146      0.0006
     66  CD1       28.3230   44.4860   63.1690 C.ar  146  TRP146      0.0946
     67  CD2       29.4770   44.3690   65.0850 C.ar  146  TRP146      0.0152
     68  NE1       29.6240   44.1600   62.8590 N.ar  146  TRP146     -0.2442
     69  CE2       30.3480   44.0790   64.0210 C.ar  146  TRP146      0.0810
     70  CE3       29.9690   44.3550   66.3900 C.ar  146  TRP146      0.0012
     71  CZ2       31.6900   43.7810   64.2370 C.ar  146  TRP146      0.0191
     72  CZ3       31.3020   44.0570   66.6040 C.ar  146  TRP146      0.0001
     73  CH2       32.1500   43.7710   65.5200 C.ar  146  TRP146      0.0015
     74  N         28.0250   50.3860   51.6390 N.3   195  ASN195     -0.1225
     75  CA        29.0680   49.4130   51.9510 C.3   195  ASN195      0.1785
     76  C         28.9980   48.8130   53.3370 C.2   195  ASN195      0.2597
     77  O         29.8560   48.0050   53.7150 O.2   195  ASN195     -0.2718
     78  CB        30.4340   50.0830   51.7300 C.3   195  ASN195      0.1169
     79  CG        30.7370   50.0850   50.2390 C.2   195  ASN195      0.2627
     80  OD1       31.1530   49.0810   49.6730 O.2   195  ASN195     -0.2716
     81  ND2       30.5270   51.2190   49.5930 N.am  195  ASN195     -0.0877
     82  N         27.9940   49.1440   54.1490 N.am  196  ILE196     -0.1980
     83  CA        27.9410   48.4280   55.4290 C.3   196  ILE196      0.1595
     84  C         26.5130   48.2200   55.9020 C.2   196  ILE196      0.2287
     85  O         26.2090   47.1530   56.4340 O.2   196  ILE196     -0.2864
     86  CB        28.7270   49.1540   56.5360 C.3   196  ILE196      0.0276
     87  CG1       28.4560   48.6340   57.9500 C.3   196  ILE196      0.0022
     88  CG2       28.4720   50.6500   56.4750 C.3   196  ILE196      0.0022
     89  CD1       29.7130   48.2040   58.6740 C.3   196  ILE196      0.0001
     90  N         20.9700   45.2470   55.7530 N.3   200  TYR200     -0.1241
     91  CA        19.9510   45.4420   56.7710 C.3   200  TYR200      0.1605
     92  C         19.0710   46.6350   56.4280 C.2   200  TYR200      0.2264
     93  O         18.6600   47.4250   57.2790 O.2   200  TYR200     -0.2867
     94  CB        20.6070   45.6190   58.1460 C.3   200  TYR200      0.0534
     95  CG        21.7200   44.6030   58.3190 C.ar  200  TYR200     -0.0201
     96  CD1       21.4220   43.2640   58.5210 C.ar  200  TYR200     -0.0009
     97  CD2       23.0480   45.0030   58.2640 C.ar  200  TYR200     -0.0009
     98  CE1       22.4300   42.3340   58.6750 C.ar  200  TYR200      0.0417
     99  CE2       24.0600   44.0720   58.4170 C.ar  200  TYR200      0.0417
    100  CZ        23.7430   42.7450   58.6220 C.ar  200  TYR200      0.1957
    101  OH        24.7570   41.8210   58.7730 O.3   200  TYR200     -0.2866
@<TRIPOS>BOND
     1    81    79   am
     2    80    79    2
     3    79    78    1
     4    74    75    1
     5    78    75    1
     6    14    13    2
     7    75    76    1
     8    13    12    1
     9    76    77    2
    10    76    82   am
    11    12    15    1
    12    12    11    1
    13    82    83    1
    14    18    20   ar
    15    18    16   ar
    16    15    16    1
    17    20    21   ar
    18    16    17   ar
    19    83    84    1
    20    83    86    1
    21    90    91    1
    22    84    85    2
    23    92    91    1
    24    92    93    2
    25    88    86    1
    26    21    22    1
    27    21    19   ar
    28    86    87    1
    29    17    19   ar
    30    91    94    1
    31     3     4    2
    32     3     2    1
    33    87    89    1
    34     1     2    1
    35    94    95    1
    36    97    95   ar
    37    97    99   ar
    38    95    96   ar
    39    99   100   ar
    40    96    98   ar
    41   100    98   ar
    42   100   101    1
    43     2     5    1
    44     5     6    1
    45     6     8   ar
    46     6     7   ar
    47    54    55    1
    48    54    51    1
    49     8    10   ar
    50     7     9   ar
    51    45    44    2
    52    55    56   ar
    53    55    57   ar
    54    56    58   ar
    55    10     9   ar
    56    51    52    1
    57    51    50    1
    58    53    52    2
    59    57    59   ar
    60    58    59   ar
    61    49    48    1
    62    44    43    1
    63    46    47    1
    64    46    43    1
    65    52    60   am
    66    31    29   ar
    67    68    66   ar
    68    68    69   ar
    69    47    48    1
    70    43    42    1
    71    66    65   ar
    72    30    29   ar
    73    29    28    1
    74    60    61    1
    75    69    71   ar
    76    69    67   ar
    77    71    73   ar
    78    61    64    1
    79    61    62    1
    80    65    67   ar
    81    65    64    1
    82    28    27    1
    83    67    70   ar
    84    62    63    2
    85    73    72   ar
    86    27    24    1
    87    70    72   ar
    88    24    25    1
    89    24    23    1
    90    25    26    2
    91    41    40   ar
    92    41    39   ar
    93    40    38   ar
    94    39    37   ar
    95    38    37   ar
    96    37    36    1
    97    36    33    1
    98    33    32    1
    99    33    34    1
   100    35    34    2
