@<TRIPOS>MOLECULE
tmp/1e5dB01.pdb
 134 136 0 0 0
SMALL
GASTEIGER

@<TRIPOS>ATOM
      1  N         39.5100   41.8610   32.3590 N.3   260  SER260     -0.1202
      2  CA        39.8980   41.3300   31.0580 C.3   260  SER260      0.2020
      3  C         41.4010   41.1400   30.9990 C.2   260  SER260      0.2619
      4  O         42.1600   41.8710   31.6320 O.2   260  SER260     -0.2717
      5  CB        39.4300   42.2940   29.9580 C.3   260  SER260      0.2103
      6  OG        39.7880   41.8800   28.6580 O.3   260  SER260     -0.2182
      7  N         41.8370   40.1550   30.2250 N.am  261  MET261     -0.1965
      8  CA        43.2690   39.9500   30.0410 C.3   261  MET261      0.1736
      9  C         43.7310   40.5300   28.7100 C.2   261  MET261      0.2616
     10  O         44.7520   41.2170   28.6760 O.2   261  MET261     -0.2715
     11  CB        43.5750   38.4520   30.1240 C.3   261  MET261      0.0427
     12  CG        42.9330   37.7910   31.3370 C.3   261  MET261      0.0599
     13  SD        43.0520   35.9990   31.3340 S.3   261  MET261     -0.1393
     14  CE        41.5530   35.5340   30.4880 C.3   261  MET261      0.0692
     15  N         42.9810   40.2450   27.6350 N.am  262  TRP262     -0.1974
     16  CA        43.4220   40.6480   26.3030 C.3   262  TRP262      0.1640
     17  C         42.4710   41.6160   25.6260 C.2   262  TRP262      0.2290
     18  O         42.5120   41.8630   24.4230 O.2   262  TRP262     -0.2864
     19  CB        43.6710   39.3880   25.4430 C.3   262  TRP262      0.0576
     20  CG        45.0190   38.8370   25.8330 C.ar  262  TRP262      0.0006
     21  CD1       45.2700   37.7130   26.5610 C.ar  262  TRP262      0.0946
     22  CD2       46.2960   39.4100   25.5110 C.ar  262  TRP262      0.0152
     23  NE1       46.6280   37.5500   26.7090 N.ar  262  TRP262     -0.2442
     24  CE2       47.2820   38.5730   26.0760 C.ar  262  TRP262      0.0810
     25  CE3       46.7010   40.5410   24.8010 C.ar  262  TRP262      0.0012
     26  CZ2       48.6450   38.8240   25.9580 C.ar  262  TRP262      0.0191
     27  CZ3       48.0570   40.7840   24.6900 C.ar  262  TRP262      0.0001
     28  CH2       49.0200   39.9390   25.2600 C.ar  262  TRP262      0.0015
     29  N         39.2670   41.7050   25.0030 N.3   264  SER264     -0.1202
     30  CA        38.0520   41.4920   24.2070 C.3   264  SER264      0.2020
     31  C         36.8350   41.8290   25.0600 C.2   264  SER264      0.2619
     32  O         35.8910   42.4860   24.6170 O.2   264  SER264     -0.2717
     33  CB        38.0180   40.0750   23.6520 C.3   264  SER264      0.2103
     34  OG        38.9380   39.9590   22.5790 O.3   264  SER264     -0.2182
     35  N         36.8550   41.3740   26.3080 N.am  265  THR265     -0.1952
     36  CA        35.7350   41.6800   27.2010 C.3   265  THR265      0.1897
     37  C         35.6990   43.1730   27.4690 C.2   265  THR265      0.2313
     38  O         34.6820   43.7550   27.8350 O.2   265  THR265     -0.2863
     39  CB        35.8650   40.8920   28.5140 C.3   265  THR265      0.1794
     40  OG1       35.8500   39.4890   28.2070 O.3   265  THR265     -0.2208
     41  CG2       34.6950   41.1690   29.4470 C.3   265  THR265      0.0378
     42  N         36.1240   37.4170   31.0200 N.3   311  PRO311     -0.2102
     43  CA        36.5260   36.3610   30.0830 C.3   311  PRO311      0.1504
     44  C         36.4940   35.0320   30.8230 C.2   311  PRO311      0.2576
     45  O         36.4290   35.0070   32.0630 O.2   311  PRO311     -0.2718
     46  CB        37.9650   36.7340   29.7460 C.3   311  PRO311      0.0282
     47  CG        38.4390   37.4900   30.9520 C.3   311  PRO311      0.0208
     48  CD        37.2460   38.2830   31.4210 C.3   311  PRO311      0.0893
     49  N         36.5480   33.9080   30.1200 N.am  312  THR312     -0.1939
     50  CA        36.7080   32.6610   30.8670 C.3   312  THR312      0.2028
     51  C         38.1720   32.4350   31.2160 C.2   312  THR312      0.2642
     52  O         39.0590   32.3460   30.3640 O.2   312  THR312     -0.2714
     53  CB        36.1840   31.4550   30.0710 C.3   312  THR312      0.1808
     54  OG1       34.7980   31.6580   29.7870 O.3   312  THR312     -0.2208
     55  CG2       36.3090   30.1960   30.9110 C.3   312  THR312      0.0379
     56  N         38.4630   32.3360   32.5050 N.am  313  HIS313     -0.1959
     57  CA        39.8360   32.1170   32.9420 C.3   313  HIS313      0.1787
     58  C         39.9020   30.8280   33.7550 C.2   313  HIS313      0.2620
     59  O         39.3050   30.8180   34.8350 O.2   313  HIS313     -0.2715
     60  CB        40.3210   33.2920   33.7870 C.3   313  HIS313      0.0785
     61  CG        41.7250   33.1720   34.2880 C.ar  313  HIS313      0.0821
     62  ND1       42.0230   33.0910   35.6310 N.ar  313  HIS313     -0.2267
     63  CD2       42.9070   33.1170   33.6290 C.ar  313  HIS313      0.1154
     64  CE1       43.3340   32.9970   35.7800 C.ar  313  HIS313      0.1986
     65  NE2       43.8930   33.0070   34.5770 N.ar  313  HIS313     -0.2212
     66  N         40.5910   29.8160   33.2460 N.am  314  ASN314     -0.1958
     67  CA        40.6780   28.5430   33.9560 C.3   314  ASN314      0.1819
     68  C         39.2990   28.0570   34.4140 C.2   314  ASN314      0.2621
     69  O         39.0960   27.7910   35.6010 O.2   314  ASN314     -0.2715
     70  CB        41.6220   28.6460   35.1580 C.3   314  ASN314      0.1195
     71  CG        43.0330   29.0580   34.7860 C.2   314  ASN314      0.2630
     72  OD1       43.7530   29.6860   35.5720 O.2   314  ASN314     -0.2716
     73  ND2       43.4540   28.7150   33.5750 N.am  314  ASN314     -0.0877
     74  N         38.3400   27.9440   33.5060 N.am  315  ASN315     -0.1972
     75  CA        37.0480   27.3260   33.7840 C.3   315  ASN315      0.1688
     76  C         36.1910   28.1290   34.7500 C.2   315  ASN315      0.2292
     77  O         35.2720   27.5980   35.3740 O.2   315  ASN315     -0.2864
     78  CB        37.2420   25.9010   34.3340 C.3   315  ASN315      0.1181
     79  CG        38.0870   25.0740   33.3810 C.2   315  ASN315      0.2629
     80  OD1       39.1550   24.5640   33.7210 O.2   315  ASN315     -0.2716
     81  ND2       37.6150   24.9490   32.1500 N.am  315  ASN315     -0.0877
     82  N         34.1520   37.0830   26.7790 N.3   343  SER343     -0.1202
     83  CA        34.8490   36.3900   25.7160 C.3   343  SER343      0.2020
     84  C         35.3760   35.0680   26.2570 C.2   343  SER343      0.2619
     85  O         35.7570   34.9650   27.4250 O.2   343  SER343     -0.2717
     86  CB        35.9970   37.2350   25.1670 C.3   343  SER343      0.2103
     87  OG        36.5850   36.5930   24.0480 O.3   343  SER343     -0.2182
     88  N         35.3810   34.0610   25.3880 N.am  344  PHE344     -0.1961
     89  CA        35.9740   32.7900   25.7880 C.3   344  PHE344      0.1771
     90  C         36.7450   32.2200   24.6000 C.2   344  PHE344      0.2620
     91  O         36.5250   32.6550   23.4670 O.2   344  PHE344     -0.2715
     92  CB        34.9050   31.8130   26.2770 C.3   344  PHE344      0.0574
     93  CG        34.1210   31.2270   25.1110 C.ar  344  PHE344     -0.0200
     94  CD1       33.1450   31.9870   24.5040 C.ar  344  PHE344     -0.0042
     95  CD2       34.3690   29.9470   24.6460 C.ar  344  PHE344     -0.0042
     96  CE1       32.4340   31.4820   23.4340 C.ar  344  PHE344     -0.0003
     97  CE2       33.6690   29.4340   23.5720 C.ar  344  PHE344     -0.0003
     98  CZ        32.7020   30.2090   22.9690 C.ar  344  PHE344     -0.0000
     99  N         37.5960   31.2550   24.9180 N.am  345  GLY345     -0.1940
    100  CA        38.3760   30.5360   23.9320 C.3   345  GLY345      0.2014
    101  C         37.8340   29.1450   23.6550 C.2   345  GLY345      0.2639
    102  O         37.8030   28.7230   22.4970 O.2   345  GLY345     -0.2714
    103  N         37.4030   28.4190   24.6900 N.am  346  TRP346     -0.1959
    104  CA        36.9320   27.0580   24.4340 C.3   346  TRP346      0.1771
    105  C         35.8450   26.5830   25.3880 C.2   346  TRP346      0.2620
    106  O         34.7580   26.2220   24.9330 O.2   346  TRP346     -0.2715
    107  CB        38.1150   26.0880   24.4660 C.3   346  TRP346      0.0590
    108  CG        38.9590   26.0780   25.6930 C.ar  346  TRP346      0.0006
    109  CD1       38.8280   25.2650   26.7850 C.ar  346  TRP346      0.0946
    110  CD2       40.0830   26.9250   25.9700 C.ar  346  TRP346      0.0152
    111  NE1       39.7930   25.5500   27.7190 N.ar  346  TRP346     -0.2442
    112  CE2       40.5750   26.5660   27.2390 C.ar  346  TRP346      0.0810
    113  CE3       40.7150   27.9500   25.2590 C.ar  346  TRP346      0.0012
    114  CZ2       41.6740   27.2030   27.8060 C.ar  346  TRP346      0.0191
    115  CZ3       41.8050   28.5810   25.8280 C.ar  346  TRP346      0.0001
    116  CH2       42.2730   28.2060   27.0900 C.ar  346  TRP346      0.0015
    117  N         36.1070   26.5420   26.6900 N.am  347  SER347     -0.1936
    118  CA        35.1260   25.9680   27.6170 C.3   347  SER347      0.2055
    119  C         33.9720   26.9350   27.8580 C.2   347  SER347      0.2643
    120  O         32.8220   26.4860   27.9210 O.2   347  SER347     -0.2714
    121  CB        35.7960   25.5460   28.9230 C.3   347  SER347      0.2130
    122  OG        36.5660   26.5830   29.5110 O.3   347  SER347     -0.2179
    123  N         34.2250   28.2340   27.9880 N.am  348  GLY348     -0.1954
    124  CA        33.1800   29.2340   27.9670 C.3   348  GLY348      0.1869
    125  C         32.2940   29.3550   29.1790 C.2   348  GLY348      0.2309
    126  O         31.2110   29.9540   29.1090 O.2   348  GLY348     -0.2863
    127  N         36.7650   34.4470   21.6580 N.3   374  ASN374     -0.1240
    128  CA        37.8760   35.3800   21.4840 C.3   374  ASN374      0.1653
    129  C         37.4210   36.7700   21.0410 C.2   374  ASN374      0.2266
    130  O         36.6270   37.3990   21.7460 O.2   374  ASN374     -0.2867
    131  CB        38.9030   34.8060   20.4940 C.3   374  ASN374      0.1155
    132  CG        39.3950   33.4540   20.9820 C.2   374  ASN374      0.2627
    133  OD1       39.3820   32.4600   20.2570 O.2   374  ASN374     -0.2716
    134  ND2       39.8480   33.4090   22.2340 N.am  374  ASN374     -0.0877
@<TRIPOS>BOND
     1   133   132    2
     2   131   132    1
     3   131   128    1
     4   132   134   am
     5   129   128    1
     6   129   130    2
     7   128   127    1
     8   102   101    2
     9    34    33    1
    10    98    96   ar
    11    98    97   ar
    12    96    94   ar
    13    91    90    2
    14    97    95   ar
    15    33    30    1
    16   101   100    1
    17   101   103   am
    18   100    99    1
    19    87    86    1
    20    30    29    1
    21    30    31    1
    22    18    17    2
    23   104   107    1
    24   104   103    1
    25   104   105    1
    26   107   108    1
    27    94    93   ar
    28    90    99   am
    29    90    89    1
    30    32    31    2
    31    95    93   ar
    32    27    25   ar
    33    27    28   ar
    34    25    22   ar
    35   106   105    2
    36    31    35   am
    37    93    92    1
    38    86    83    1
    39   113   115   ar
    40   113   110   ar
    41    28    26   ar
    42   105   117   am
    43    88    89    1
    44    88    84   am
    45    19    20    1
    46    19    16    1
    47    22    20   ar
    48    22    24   ar
    49    17    16    1
    50   108   110   ar
    51   108   109   ar
    52    83    84    1
    53    83    82    1
    54    89    92    1
    55   115   116   ar
    56    20    21   ar
    57    26    24   ar
    58   110   112   ar
    59    24    23   ar
    60    84    85    2
    61    16    15    1
    62    35    36    1
    63    21    23   ar
    64   117   118    1
    65   109   111   ar
    66   116   114   ar
    67    36    37    1
    68    36    39    1
    69   112   111   ar
    70   112   114   ar
    71    37    38    2
    72   118   119    1
    73   118   121    1
    74    15     9   am
    75   119   120    2
    76   119   123   am
    77   124   123    1
    78   124   125    1
    79    40    39    1
    80    39    41    1
    81     6     5    1
    82    10     9    2
    83     9     8    1
    84   121   122    1
    85   126   125    2
    86    46    43    1
    87    46    47    1
    88    54    53    1
    89     5     2    1
    90     8    11    1
    91     8     7    1
    92    53    50    1
    93    53    55    1
    94    43    44    1
    95    43    42    1
    96    49    44   am
    97    49    50    1
    98    11    12    1
    99     7     3   am
   100    52    51    2
   101    14    13    1
   102    44    45    2
   103    50    51    1
   104    47    48    1
   105     3     2    1
   106     3     4    2
   107    42    48    1
   108     2     1    1
   109    51    56   am
   110    13    12    1
   111    81    79   am
   112    56    57    1
   113    57    58    1
   114    57    60    1
   115    66    58   am
   116    66    67    1
   117    79    80    2
   118    79    78    1
   119    74    75    1
   120    74    68   am
   121    73    71   am
   122    63    61   ar
   123    63    65   ar
   124    58    59    2
   125    75    78    1
   126    75    76    1
   127    60    61    1
   128    67    68    1
   129    67    70    1
   130    61    62   ar
   131    68    69    2
   132    65    64   ar
   133    76    77    2
   134    71    70    1
   135    71    72    2
   136    62    64   ar
