@<TRIPOS>MOLECULE
tmp/1e5eA00.pdb
 172 161 0 0 0
SMALL
GASTEIGER

@<TRIPOS>ATOM
      1  N         46.1940   45.5060   18.4390 N.3    82  SER82      -0.1202
      2  CA        45.4920   46.6030   17.8190 C.3    82  SER82       0.2020
      3  C         44.9120   46.1020   16.4950 C.2    82  SER82       0.2619
      4  O         45.4000   45.1320   15.9140 O.2    82  SER82      -0.2717
      5  CB        46.2800   47.8690   17.5180 C.3    82  SER82       0.2103
      6  OG        47.2950   47.5880   16.5730 O.3    82  SER82      -0.2182
      7  N         43.8210   46.7540   16.1420 N.am   83  GLY83      -0.1942
      8  CA        43.1940   46.4430   14.8380 C.3    83  GLY83       0.2014
      9  C         44.2600   46.6330   13.7490 C.2    83  GLY83       0.2638
     10  O         44.3720   45.7800   12.8820 O.2    83  GLY83      -0.2714
     11  N         45.0970   47.6940   13.8070 N.am   84  MET84      -0.1976
     12  CA        46.1430   47.8110   12.7580 C.3    84  MET84       0.1605
     13  C         47.0820   46.6180   12.7590 C.2    84  MET84       0.2287
     14  O         47.5240   46.0870   11.7230 O.2    84  MET84      -0.2864
     15  CB        46.9120   49.1350   12.9350 C.3    84  MET84       0.0413
     16  CG        46.1630   50.4230   12.5860 C.3    84  MET84       0.0598
     17  SD        45.1410   50.2610   11.0830 S.3    84  MET84      -0.1393
     18  CE        46.4270   49.9690    9.8450 C.3    84  MET84       0.0692
     19  N         45.5180   43.7810   10.9390 N.3    87  ILE87      -0.1245
     20  CA        45.6230   43.9890    9.5040 C.3    87  ILE87       0.1561
     21  C         47.0590   43.7610    8.9970 C.2    87  ILE87       0.2260
     22  O         47.2930   43.0290    8.0200 O.2    87  ILE87      -0.2867
     23  CB        45.1080   45.3830    9.0990 C.3    87  ILE87       0.0252
     24  CG1       43.5770   45.4910    9.3650 C.3    87  ILE87       0.0019
     25  CG2       45.3790   45.6210    7.6140 C.3    87  ILE87       0.0019
     26  CD1       43.1530   46.9230    9.6300 C.3    87  ILE87       0.0001
     27  N         39.3830   52.8320    6.3790 N.3   108  TYR108     -0.1241
     28  CA        39.8740   53.5790    7.5550 C.3   108  TYR108      0.1605
     29  C         41.1520   54.3110    7.1750 C.2   108  TYR108      0.2264
     30  O         42.0490   53.7240    6.5820 O.2   108  TYR108     -0.2867
     31  CB        40.1280   52.5800    8.6820 C.3   108  TYR108      0.0534
     32  CG        40.7230   53.2220    9.8980 C.ar  108  TYR108     -0.0201
     33  CD1       40.1820   54.3990   10.4290 C.ar  108  TYR108     -0.0009
     34  CD2       41.8220   52.6650   10.5210 C.ar  108  TYR108     -0.0009
     35  CE1       40.7190   54.9800   11.5460 C.ar  108  TYR108      0.0417
     36  CE2       42.3720   53.2210   11.6630 C.ar  108  TYR108      0.0417
     37  CZ        41.8170   54.3770   12.1650 C.ar  108  TYR108      0.1957
     38  OH        42.3770   54.9110   13.3140 O.3   108  TYR108     -0.2866
     39  N         44.1230   54.9790    8.6360 N.3   110  CYS110     -0.1221
     40  CA        45.4080   54.3350    8.8720 C.3   110  CYS110      0.1808
     41  C         45.6040   53.1200    8.0070 C.2   110  CYS110      0.2601
     42  O         46.7440   52.8820    7.5970 O.2   110  CYS110     -0.2717
     43  CB        45.6470   54.0550   10.3910 C.3   110  CYS110      0.0970
     44  SG        45.0200   55.3360   11.5170 S.3   110  CYS110     -0.0800
     45  N         44.5900   52.3390    7.6730 N.am  111  THR111     -0.1953
     46  CA        44.8120   51.2210    6.7700 C.3   111  THR111      0.1897
     47  C         45.2450   51.6980    5.3750 C.2   111  THR111      0.2313
     48  O         46.1090   51.1490    4.6800 O.2   111  THR111     -0.2863
     49  CB        43.5230   50.4020    6.5910 C.3   111  THR111      0.1794
     50  OG1       42.8790   50.1650    7.8340 O.3   111  THR111     -0.2208
     51  CG2       43.8720   49.0910    5.9010 C.3   111  THR111      0.0378
     52  N         36.2400   47.0370    3.2040 N.3   151  GLU151     -0.1196
     53  CA        35.4730   47.1770    4.4420 C.3   151  GLU151      0.1783
     54  C         34.0120   47.4200    4.0470 C.2   151  GLU151      0.2306
     55  O         33.8040   48.3870    3.2850 O.2   151  GLU151     -0.2863
     56  CB        35.8200   48.4540    5.1960 C.2   151  GLU151      0.0071
     57  CG        37.2560   48.6130    5.6470 C.2   151  GLU151      0.0834
     58  CD        37.6020   49.9370    6.2800 C.2   151  GLU151      0.3877
     59  OE1       36.6580   50.7100    6.5800 O.co2 151  GLU151     -0.2406
     60  OE2       38.8110   50.2790    6.4250 O.co2 151  GLU151     -0.2406
     61  N         34.4220   52.7170    6.2370 N.3   155  ASN155     -0.1240
     62  CA        34.7430   53.7680    7.2090 C.3   155  ASN155      0.1653
     63  C         35.3220   54.9240    6.4240 C.2   155  ASN155      0.2266
     64  O         36.3840   54.7140    5.8350 O.2   155  ASN155     -0.2867
     65  CB        35.7560   53.2130    8.2200 C.3   155  ASN155      0.1155
     66  CG        36.1340   54.2260    9.2870 C.2   155  ASN155      0.2627
     67  OD1       35.6300   55.3660    9.2880 O.2   155  ASN155     -0.2716
     68  ND2       36.9830   53.7920   10.2250 N.am  155  ASN155     -0.0877
     69  N         37.2990   43.6230    6.3960 N.3   181  ASP181     -0.1239
     70  CA        37.4140   44.1960    7.7560 C.3   181  ASP181      0.1674
     71  C         35.9850   44.3790    8.2550 C.2   181  ASP181      0.2266
     72  O         35.2120   45.2170    7.7780 O.2   181  ASP181     -0.2867
     73  CB        38.2600   45.4590    7.7640 C.3   181  ASP181      0.1410
     74  CG        38.3230   46.1610    9.1110 C.2   181  ASP181      0.3668
     75  OD1       37.5070   45.8680   10.0040 O.co2 181  ASP181     -0.2456
     76  OD2       39.1430   47.0990    9.2410 O.co2 181  ASP181     -0.2456
     77  N         34.8150   45.0990   11.3010 N.3   183  THR183     -0.1203
     78  CA        34.7260   45.8820   12.5190 C.3   183  THR183      0.1994
     79  C         33.3870   46.5830   12.7070 C.2   183  THR183      0.2617
     80  O         32.8100   46.4750   13.7640 O.2   183  THR183     -0.2717
     81  CB        35.7990   46.9980   12.4900 C.3   183  THR183      0.1784
     82  OG1       37.1080   46.4300   12.4030 O.3   183  THR183     -0.2211
     83  CG2       35.7240   47.8600   13.7440 C.3   183  THR183      0.0376
     84  N         32.9260   47.3140   11.7040 N.am  184  PHE184     -0.1975
     85  CA        31.6590   48.0540   11.7880 C.3   184  PHE184      0.1639
     86  C         30.4950   47.1310   11.9950 C.2   184  PHE184      0.2290
     87  O         29.5750   47.5530   12.6980 O.2   184  PHE184     -0.2864
     88  CB        31.3990   48.9230   10.5530 C.3   184  PHE184      0.0560
     89  CG        32.0980   50.2520   10.6070 C.ar  184  PHE184     -0.0200
     90  CD1       33.2230   50.4480   11.3990 C.ar  184  PHE184     -0.0042
     91  CD2       31.6710   51.2890    9.7980 C.ar  184  PHE184     -0.0042
     92  CE1       33.8600   51.6730   11.4510 C.ar  184  PHE184     -0.0003
     93  CE2       32.2890   52.5300    9.8480 C.ar  184  PHE184     -0.0003
     94  CZ        33.3770   52.7290   10.6790 C.ar  184  PHE184     -0.0000
     95  N         39.2370   42.4350   12.5320 N.3   202  HIS202     -0.1226
     96  CA        38.5280   43.3740   13.3500 C.3   202  HIS202      0.1752
     97  C         39.4870   44.2190   14.2140 C.2   202  HIS202      0.2596
     98  O         40.4780   43.7200   14.7310 O.2   202  HIS202     -0.2718
     99  CB        37.6510   42.7480   14.4550 C.3   202  HIS202      0.0759
    100  CG        36.4940   41.9200   13.9890 C.ar  202  HIS202      0.0818
    101  ND1       35.2370   42.4610   13.7970 N.ar  202  HIS202     -0.2268
    102  CD2       36.3980   40.6160   13.6760 C.ar  202  HIS202      0.1154
    103  CE1       34.4230   41.5050   13.3930 C.ar  202  HIS202      0.1986
    104  NE2       35.1090   40.3740   13.2960 N.ar  202  HIS202     -0.2212
    105  N         39.0430   45.4330   14.4490 N.am  203  SER203     -0.1952
    106  CA        39.5810   46.2850   15.4810 C.3   203  SER203      0.1924
    107  C         38.6290   45.8990   16.6360 C.2   203  SER203      0.2314
    108  O         37.4800   46.3410   16.7050 O.2   203  SER203     -0.2863
    109  CB        39.4470   47.7720   15.2390 C.3   203  SER203      0.2116
    110  OG        39.7630   48.4950   16.4450 O.3   203  SER203     -0.2180
    111  N         38.9020   46.8610   19.4510 N.3   205  THR205     -0.1203
    112  CA        38.7970   48.0980   20.1610 C.3   205  THR205      0.1994
    113  C         37.3890   48.6940   20.0790 C.2   205  THR205      0.2617
    114  O         37.0030   49.5400   20.9130 O.2   205  THR205     -0.2717
    115  CB        39.7290   49.1530   19.5200 C.3   205  THR205      0.1784
    116  OG1       41.0160   48.5520   19.3370 O.3   205  THR205     -0.2211
    117  CG2       39.7840   50.4630   20.3020 C.3   205  THR205      0.0376
    118  N         36.6320   48.3180   19.0570 N.am  206  LYS206     -0.1979
    119  CA        35.3150   48.8910   18.8500 C.3   206  LYS206      0.1596
    120  C         34.2300   48.0550   19.4750 C.2   206  LYS206      0.2287
    121  O         34.2770   47.9170   20.7090 O.2   206  LYS206     -0.2864
    122  CB        35.0880   49.1460   17.3460 C.3   206  LYS206      0.0298
    123  CG        36.3030   49.6990   16.6170 C.3   206  LYS206      0.0038
    124  CD        36.9110   50.8680   17.3430 C.3   206  LYS206      0.0206
    125  CE        37.9550   51.6350   16.5530 C.3   206  LYS206      0.1093
    126  NZ        38.7240   52.5060   17.4880 N.3   206  LYS206     -0.1314
    127  N         42.5880   48.5310   23.4460 N.3   215  VAL215     -0.1245
    128  CA        42.9810   48.6020   22.0360 C.3   215  VAL215      0.1561
    129  C         43.4200   47.1830   21.6760 C.2   215  VAL215      0.2260
    130  O         44.2900   46.6770   22.3680 O.2   215  VAL215     -0.2867
    131  CB        44.1110   49.5960   21.7090 C.3   215  VAL215      0.0252
    132  CG1       44.4970   49.4680   20.2330 C.3   215  VAL215      0.0019
    133  CG2       43.5750   50.9990   22.0070 C.3   215  VAL215      0.0019
    134  N         37.5550   60.2860   18.6670 N.3   334  VAL334     -0.1231
    135  CA        37.5380   59.2830   17.6040 C.3   334  VAL334      0.1692
    136  C         37.2560   57.9280   18.2730 C.2   334  VAL334      0.2593
    137  O         37.0180   57.8730   19.4790 O.2   334  VAL334     -0.2718
    138  CB        38.8160   59.2880   16.7740 C.3   334  VAL334      0.0266
    139  CG1       39.0300   60.6940   16.1760 C.3   334  VAL334      0.0020
    140  CG2       40.0390   58.9320   17.6370 C.3   334  VAL334      0.0020
    141  N         37.3040   56.8440   17.5140 N.am  335  SER335     -0.1938
    142  CA        36.9080   55.5370   17.9520 C.3   335  SER335      0.2055
    143  C         35.3930   55.3820   17.7690 C.2   335  SER335      0.2642
    144  O         34.7260   56.3340   17.3580 O.2   335  SER335     -0.2714
    145  CB        37.2770   55.1650   19.4140 C.3   335  SER335      0.2130
    146  OG        37.3670   53.7340   19.4080 O.3   335  SER335     -0.2179
    147  N         34.8490   54.2340   18.1690 N.am  336  LEU336     -0.1977
    148  CA        33.4340   53.9570   17.9510 C.3   336  LEU336      0.1596
    149  C         33.0970   52.6460   18.6240 C.2   336  LEU336      0.2287
    150  O         34.0030   51.9690   19.1240 O.2   336  LEU336     -0.2864
    151  CB        33.2080   53.7930   16.3980 C.3   336  LEU336      0.0297
    152  CG        34.0680   52.7440   15.6720 C.3   336  LEU336      0.0022
    153  CD1       33.2720   51.5630   15.0910 C.3   336  LEU336      0.0001
    154  CD2       34.8720   53.3700   14.5380 C.3   336  LEU336      0.0001
    155  N         39.9410   61.2850   11.7790 N.3   350  THR350     -0.1218
    156  CA        40.3640   59.9460   11.3960 C.3   350  THR350      0.1862
    157  C         40.9500   59.8330    9.9950 C.2   350  THR350      0.2287
    158  O         41.7290   58.9300    9.6910 O.2   350  THR350     -0.2866
    159  CB        39.2000   58.9160   11.4550 C.3   350  THR350      0.1770
    160  OG1       38.0670   59.3830   10.6630 O.3   350  THR350     -0.2211
    161  CG2       38.7980   58.6940   12.9040 C.3   350  THR350      0.0375
    162  N         30.8040   61.6190   11.2910 N.3   370  ARG370     -0.1245
    163  CA        30.5650   60.1870   11.5460 C.3   370  ARG370      0.1563
    164  C         30.1060   59.9810   12.9920 C.2   370  ARG370      0.2260
    165  O         30.7210   60.4450   13.9500 O.2   370  ARG370     -0.2867
    166  CB        31.8060   59.3540   11.2190 C.3   370  ARG370      0.0307
    167  CG        31.6170   57.8450   11.2880 C.3   370  ARG370      0.0489
    168  CD        32.9730   57.1060   11.3690 C.3   370  ARG370      0.2205
    169  NE        33.5870   57.3510   12.6920 N.pl3 370  ARG370     -0.0865
    170  CZ        34.8340   56.9550   13.0140 C.cat 370  ARG370      0.5346
    171  NH1       35.5940   56.3160   12.1340 N.pl3 370  ARG370      0.1354
    172  NH2       35.3080   57.2210   14.2230 N.pl3 370  ARG370      0.1354
@<TRIPOS>BOND
     1    52    53    1
     2    55    54    2
     3    54    53    1
     4    53    56    1
     5    48    47    2
     6    56    57    2
     7    47    46    1
     8    57    58    1
     9    64    63    2
    10    51    49    1
    11    61    62    1
    12    58    60   ar
    13    58    59   ar
    14    27    28    1
    15    69    70    1
    16    63    62    1
    17    30    29    2
    18    49    46    1
    19    49    50    1
    20    46    45    1
    21    29    28    1
    22    62    65    1
    23    28    31    1
    24    42    41    2
    25    25    23    1
    26    45    41   am
    27    70    73    1
    28    70    71    1
    29    73    74    1
    30    72    71    2
    31    41    40    1
    32    22    21    2
    33    65    66    1
    34    39    40    1
    35    31    32    1
    36    40    43    1
    37    21    20    1
    38    23    24    1
    39    23    20    1
    40    74    76   ar
    41    74    75   ar
    42    66    67    2
    43    66    68   am
    44    24    26    1
    45    20    19    1
    46   158   157    2
    47    91    93   ar
    48    91    89   ar
    49    18    17    1
    50    93    94   ar
    51    32    33   ar
    52    32    34   ar
    53   157   156    1
    54    43    44    1
    55    33    35   ar
    56    34    36   ar
    57    88    89    1
    58    88    85    1
    59    89    90   ar
    60   160   159    1
    61    94    92   ar
    62    17    16    1
    63   166   167    1
    64   166   163    1
    65   167   168    1
    66   162   163    1
    67    77    78    1
    68   168   169    1
    69   156   159    1
    70   156   155    1
    71    90    92   ar
    72   159   161    1
    73    35    37   ar
    74   163   164    1
    75    36    37   ar
    76    84    85    1
    77    84    79   am
    78    14    13    2
    79    85    86    1
    80    86    87    2
    81   171   170    1
    82    37    38    1
    83    82    81    1
    84    81    78    1
    85    81    83    1
    86    78    79    1
    87    95    96    1
    88    16    15    1
    89   169   170    2
    90    79    80    2
    91    12    13    1
    92    12    15    1
    93    12    11    1
    94    10     9    2
    95   164   165    2
    96   170   172    1
    97   104   103   ar
    98   104   102   ar
    99    96    97    1
   100    96    99    1
   101   103   101   ar
   102   102   100   ar
   103     9    11   am
   104     9     8    1
   105   101   100   ar
   106   100    99    1
   107    97   105   am
   108    97    98    2
   109   105   106    1
   110   154   152    1
   111     8     7    1
   112   153   152    1
   113   109   106    1
   114   109   110    1
   115   106   107    1
   116   152   151    1
   117     4     3    2
   118     7     3   am
   119   139   138    1
   120   151   148    1
   121     3     2    1
   122   125   124    1
   123   125   126    1
   124     6     5    1
   125   123   124    1
   126   123   122    1
   127   107   108    2
   128   138   135    1
   129   138   140    1
   130   122   119    1
   131   144   143    2
   132   141   142    1
   133   141   136   am
   134     5     2    1
   135   135   136    1
   136   135   134    1
   137   143   142    1
   138   143   147   am
   139     2     1    1
   140   148   147    1
   141   148   149    1
   142   142   145    1
   143   136   137    2
   144   149   150    2
   145   119   118    1
   146   119   120    1
   147   118   113   am
   148   116   115    1
   149   146   145    1
   150   111   112    1
   151   120   121    2
   152   115   112    1
   153   115   117    1
   154   113   112    1
   155   113   114    2
   156   132   131    1
   157   129   128    1
   158   129   130    2
   159   131   133    1
   160   131   128    1
   161   128   127    1
