@<TRIPOS>MOLECULE
tmp/1e5fB00.pdb
 125 115 0 0 0
SMALL
GASTEIGER

@<TRIPOS>ATOM
      1  N         55.6920   44.1520   22.5040 N.3    82  SER82      -0.1202
      2  CA        56.6850   43.0410   22.7370 C.3    82  SER82       0.2020
      3  C         58.0280   43.5580   22.2200 C.2    82  SER82       0.2619
      4  O         58.0740   44.4330   21.4040 O.2    82  SER82      -0.2717
      5  CB        56.4690   41.7760   21.9170 C.3    82  SER82       0.2103
      6  OG        56.4030   42.1430   20.5450 O.3    82  SER82      -0.2182
      7  N         59.1240   42.9580   22.7660 N.am   83  GLY83      -0.1942
      8  CA        60.4110   43.2480   22.3000 C.3    83  GLY83       0.2014
      9  C         60.4540   43.0670   20.7540 C.2    83  GLY83       0.2638
     10  O         61.1240   43.9160   20.0490 O.2    83  GLY83      -0.2714
     11  N         59.8610   42.0790   20.1820 N.am   84  MET84      -0.1976
     12  CA        59.9360   41.8810   18.7050 C.3    84  MET84       0.1605
     13  C         59.2560   43.0510   18.0060 C.2    84  MET84       0.2287
     14  O         59.6370   43.6270   16.9580 O.2    84  MET84      -0.2864
     15  CB        59.2660   40.5430   18.2940 C.3    84  MET84       0.0413
     16  CG        60.1070   39.3240   18.7640 C.3    84  MET84       0.0598
     17  SD        61.8310   39.3950   18.2850 S.3    84  MET84      -0.1393
     18  CE        61.5760   39.6060   16.4250 C.3    84  MET84       0.0692
     19  N         61.7300   45.8990   17.9050 N.3    87  ILE87      -0.1245
     20  CA        62.7020   45.6510   16.8860 C.3    87  ILE87       0.1561
     21  C         62.1190   45.9430   15.5000 C.2    87  ILE87       0.2260
     22  O         62.5020   46.7880   14.7070 O.2    87  ILE87      -0.2867
     23  CB        63.2730   44.1750   16.9590 C.3    87  ILE87       0.0252
     24  CG1       64.0150   44.1630   18.3490 C.3    87  ILE87       0.0019
     25  CG2       64.2860   44.1580   15.7930 C.3    87  ILE87       0.0019
     26  CD1       64.5170   42.8520   18.9150 C.3    87  ILE87       0.0001
     27  N         69.1510   36.6890   19.3670 N.3   108  TYR108     -0.1241
     28  CA        68.0090   35.9490   19.8350 C.3   108  TYR108      0.1605
     29  C         67.5250   35.1870   18.5430 C.2   108  TYR108      0.2264
     30  O         67.2610   35.7500   17.4750 O.2   108  TYR108     -0.2867
     31  CB        66.9660   36.9250   20.3400 C.3   108  TYR108      0.0534
     32  CG        65.6680   36.2870   20.7960 C.ar  108  TYR108     -0.0201
     33  CD1       65.7100   35.1820   21.6540 C.ar  108  TYR108     -0.0009
     34  CD2       64.4040   36.8060   20.4530 C.ar  108  TYR108     -0.0009
     35  CE1       64.5550   34.6210   22.1100 C.ar  108  TYR108      0.0417
     36  CE2       63.2380   36.2490   20.9680 C.ar  108  TYR108      0.0417
     37  CZ        63.3070   35.1470   21.8110 C.ar  108  TYR108      0.1957
     38  OH        62.1900   34.5440   22.4080 O.3   108  TYR108     -0.2866
     39  N         64.6940   37.3470   16.3770 N.3   111  THR111     -0.1218
     40  CA        65.2480   38.4990   15.6690 C.3   111  THR111      0.1862
     41  C         65.9500   38.0520   14.3930 C.2   111  THR111      0.2287
     42  O         65.7320   38.5780   13.3290 O.2   111  THR111     -0.2866
     43  CB        66.2620   39.3360   16.5070 C.3   111  THR111      0.1770
     44  OG1       65.5260   39.6960   17.7100 O.3   111  THR111     -0.2211
     45  CG2       66.5890   40.5870   15.6520 C.3   111  THR111      0.0375
     46  N         73.5750   42.7370   19.5820 N.3   151  GLU151     -0.1196
     47  CA        73.2190   42.5180   20.9660 C.3   151  GLU151      0.1783
     48  C         74.4780   42.2200   21.7860 C.2   151  GLU151      0.2306
     49  O         75.2950   41.3670   21.3690 O.2   151  GLU151     -0.2863
     50  CB        72.5050   41.1270   21.1300 C.2   151  GLU151      0.0071
     51  CG        71.1180   40.9070   20.5750 C.2   151  GLU151      0.0834
     52  CD        70.3950   39.5460   20.6300 C.2   151  GLU151      0.3877
     53  OE1       70.9130   38.6050   21.3260 O.co2 151  GLU151     -0.2406
     54  OE2       69.4180   39.3960   19.8240 O.co2 151  GLU151     -0.2406
     55  N         72.6620   36.7680   22.8940 N.3   155  ASN155     -0.1296
     56  CA        71.7140   35.7710   23.3520 C.3   155  ASN155      0.1339
     57  C         71.7910   34.5180   22.4730 C.3   155  ASN155      0.2014
     58  O         71.3330   34.6650   21.3460 O.3   155  ASN155     -0.2188
     59  CB        70.2390   36.2670   23.3250 C.3   155  ASN155      0.1102
     60  CG        69.1420   35.3220   23.8460 C.2   155  ASN155      0.2623
     61  OD1       69.3860   34.1100   24.1000 O.2   155  ASN155     -0.2716
     62  ND2       67.9030   35.7900   24.0480 N.am  155  ASN155     -0.0877
     63  N         70.5460   46.0400   20.9630 N.3   181  ASP181     -0.1239
     64  CA        69.5070   45.4700   21.7370 C.3   181  ASP181      0.1674
     65  C         70.2040   45.3830   23.1150 C.2   181  ASP181      0.2266
     66  O         71.1270   44.5970   23.3020 O.2   181  ASP181     -0.2867
     67  CB        69.0740   44.1430   21.1510 C.3   181  ASP181      0.1410
     68  CG        68.0480   43.3900   21.9540 C.2   181  ASP181      0.3668
     69  OD1       67.8530   43.7530   23.1320 O.co2 181  ASP181     -0.2456
     70  OD2       67.3890   42.3900   21.5180 O.co2 181  ASP181     -0.2456
     71  N         68.7480   44.4070   26.0120 N.3   183  THR183     -0.1203
     72  CA        67.8880   43.6280   26.8690 C.3   183  THR183      0.1993
     73  C         68.6870   42.9760   27.9720 C.2   183  THR183      0.2614
     74  O         68.2950   43.1110   29.1370 O.2   183  THR183     -0.2717
     75  CB        67.1810   42.4490   26.0780 C.3   183  THR183      0.1784
     76  OG1       66.2830   43.1190   25.1760 O.3   183  THR183     -0.2211
     77  CG2       66.4000   41.5740   27.0930 C.3   183  THR183      0.0376
     78  N         69.7650   42.2850   27.6280 N.am  184  PHE184     -0.2029
     79  CA        70.5170   41.5730   28.6770 C.3   184  PHE184      0.1325
     80  C         71.2440   42.3940   29.6780 C.3   184  PHE184      0.2039
     81  O         71.2250   41.9450   30.8240 O.3   184  PHE184     -0.2185
     82  CB        71.5880   40.6140   28.1080 C.3   184  PHE184      0.0507
     83  CG        71.0870   39.3170   27.5870 C.ar  184  PHE184     -0.0204
     84  CD1       69.7510   39.0810   27.3730 C.ar  184  PHE184     -0.0042
     85  CD2       72.0450   38.3250   27.3570 C.ar  184  PHE184     -0.0042
     86  CE1       69.3530   37.8080   26.9710 C.ar  184  PHE184     -0.0003
     87  CE2       71.6400   37.0530   26.9180 C.ar  184  PHE184     -0.0003
     88  CZ        70.2850   36.7760   26.7570 C.ar  184  PHE184     -0.0000
     89  N         63.5730   44.1680   24.9830 N.3   203  SER203     -0.1217
     90  CA        62.5180   43.3080   25.4240 C.3   203  SER203      0.1889
     91  C         62.2390   43.7440   26.8690 C.2   203  SER203      0.2288
     92  O         62.9060   43.2950   27.8050 O.2   203  SER203     -0.2866
     93  CB        62.8380   41.7770   25.2720 C.3   203  SER203      0.2089
     94  OG        61.6970   41.1510   25.9010 O.3   203  SER203     -0.2183
     95  N         60.0180   42.7080   28.6780 N.3   205  THR205     -0.1203
     96  CA        59.6350   41.4220   29.2140 C.3   205  THR205      0.1994
     97  C         60.6170   40.8900   30.2350 C.2   205  THR205      0.2617
     98  O         60.2380   40.0350   31.1330 O.2   205  THR205     -0.2717
     99  CB        59.4590   40.4190   28.0640 C.3   205  THR205      0.1784
    100  OG1       58.6050   40.9820   27.0480 O.3   205  THR205     -0.2211
    101  CG2       58.7850   39.1550   28.5940 C.3   205  THR205      0.0376
    102  N         61.8820   41.2170   30.0430 N.am  206  LYS206     -0.1979
    103  CA        62.9180   40.6410   30.8840 C.3   206  LYS206      0.1596
    104  C         63.2160   41.4000   32.1350 C.2   206  LYS206      0.2287
    105  O         62.2790   41.6130   32.8720 O.2   206  LYS206     -0.2864
    106  CB        64.2430   40.4770   30.0630 C.3   206  LYS206      0.0298
    107  CG        63.7750   39.8780   28.6820 C.3   206  LYS206      0.0038
    108  CD        63.1070   38.5490   28.8090 C.3   206  LYS206      0.0206
    109  CE        62.6760   37.8000   27.5470 C.3   206  LYS206      0.1093
    110  NZ        63.7590   37.9710   26.4360 N.3   206  LYS206     -0.1314
    111  N         54.5990   40.9800   28.6320 N.3   215  VAL215     -0.1245
    112  CA        55.3860   40.9450   27.3960 C.3   215  VAL215      0.1561
    113  C         55.4050   42.3600   26.8830 C.2   215  VAL215      0.2260
    114  O         54.3670   42.9940   26.6900 O.2   215  VAL215     -0.2867
    115  CB        54.7610   39.9310   26.4310 C.3   215  VAL215      0.0252
    116  CG1       55.3780   39.9000   25.0150 C.3   215  VAL215      0.0019
    117  CG2       55.0130   38.5280   26.9990 C.3   215  VAL215      0.0019
    118  N         63.8020   35.1860   30.7140 N.3   336  LEU336     -0.1245
    119  CA        64.8990   35.4170   31.6440 C.3   336  LEU336      0.1561
    120  C         64.6320   36.7530   32.3000 C.2   336  LEU336      0.2260
    121  O         63.6410   37.4460   32.0010 O.2   336  LEU336     -0.2867
    122  CB        66.1730   35.5800   30.7130 C.3   336  LEU336      0.0270
    123  CG        66.0230   36.6580   29.5890 C.3   336  LEU336      0.0019
    124  CD1       66.9810   37.8390   29.7930 C.3   336  LEU336      0.0001
    125  CD2       66.3830   36.0120   28.2200 C.3   336  LEU336      0.0001
@<TRIPOS>BOND
     1    42    41    2
     2    41    40    1
     3    22    21    2
     4    21    20    1
     5    45    43    1
     6    40    39    1
     7    40    43    1
     8    25    23    1
     9    18    17    1
    10    43    44    1
    11    20    23    1
    12    20    19    1
    13    14    13    2
    14    23    24    1
    15    30    29    2
    16    13    12    1
    17    17    16    1
    18    15    12    1
    19    15    16    1
    20    24    26    1
    21    29    28    1
    22    12    11    1
    23    27    28    1
    24    46    47    1
    25    54    52   ar
    26    28    31    1
    27    10     9    2
    28    11     9   am
    29    31    32    1
    30    34    32   ar
    31    34    36   ar
    32     6     5    1
    33    51    52    1
    34    51    50    2
    35    52    53   ar
    36     9     8    1
    37    32    33   ar
    38    63    64    1
    39    47    50    1
    40    47    48    1
    41    36    37   ar
    42    67    64    1
    43    67    68    1
    44    58    57    1
    45    49    48    2
    46     4     3    2
    47    70    68   ar
    48    33    35   ar
    49    64    65    1
    50    37    35   ar
    51    37    38    1
    52     5     2    1
    53    68    69   ar
    54     3     2    1
    55     3     7   am
    56     8     7    1
    57    57    56    1
    58     1     2    1
    59    55    56    1
    60    65    66    2
    61    59    56    1
    62    59    60    1
    63    60    62   am
    64    60    61    2
    65    89    90    1
    66   116   115    1
    67    76    75    1
    68    93    90    1
    69    93    94    1
    70    90    91    1
    71    71    72    1
    72    75    72    1
    73    75    77    1
    74   115   117    1
    75   115   112    1
    76   110   109    1
    77   114   113    2
    78    88    87   ar
    79    88    86   ar
    80    91    92    2
    81    72    73    1
    82   113   112    1
    83    87    85   ar
    84    86    84   ar
    85   100    99    1
    86    85    83   ar
    87    84    83   ar
    88   112   111    1
    89   109   108    1
    90    83    82    1
    91    78    73   am
    92    78    79    1
    93    73    74    2
    94    99   101    1
    95    99    96    1
    96    82    79    1
    97   125   123    1
    98    79    80    1
    99    95    96    1
   100   107   108    1
   101   107   106    1
   102    96    97    1
   103   123   124    1
   104   123   122    1
   105    80    81    1
   106   102    97   am
   107   102   103    1
   108   106   103    1
   109    97    98    2
   110   122   119    1
   111   118   119    1
   112   103   104    1
   113   119   120    1
   114   121   120    2
   115   104   105    2
