@<TRIPOS>MOLECULE
tmp/1e5jA02.pdb
 161 156 0 0 0
SMALL
GASTEIGER

@<TRIPOS>ATOM
      1  N          1.0740   50.9940   16.8700 N.3    32  HIS32      -0.1241
      2  CA         0.4610   49.9570   15.9890 C.3    32  HIS32       0.1621
      3  C         -0.4550   50.8060   15.0920 C.2    32  HIS32       0.2264
      4  O         -0.2680   52.0360   15.0110 O.2    32  HIS32      -0.2867
      5  CB        -0.2990   48.9760   16.8460 C.3    32  HIS32       0.0745
      6  CG        -0.7310   47.7020   16.2100 C.ar   32  HIS32       0.0817
      7  ND1       -1.7440   47.6460   15.2640 N.ar   32  HIS32      -0.2268
      8  CD2       -0.2810   46.4440   16.4010 C.ar   32  HIS32       0.1154
      9  CE1       -1.8890   46.3770   14.9210 C.ar   32  HIS32       0.1986
     10  NE2       -1.0250   45.6200   15.5770 N.ar   32  HIS32      -0.2212
     11  N         -1.9480   53.5790    8.9410 N.3    63  TYR63      -0.1241
     12  CA        -2.3220   52.6610    7.8650 C.3    63  TYR63       0.1605
     13  C         -3.1740   53.4320    6.8630 C.2    63  TYR63       0.2264
     14  O         -3.9690   54.2890    7.2470 O.2    63  TYR63      -0.2867
     15  CB        -3.1570   51.4800    8.3370 C.3    63  TYR63       0.0534
     16  CG        -2.4770   50.2740    8.9160 C.ar   63  TYR63      -0.0201
     17  CD1       -1.8520   50.2740   10.1530 C.ar   63  TYR63      -0.0009
     18  CD2       -2.5390   49.0790    8.2310 C.ar   63  TYR63      -0.0009
     19  CE1       -1.2800   49.1420   10.6980 C.ar   63  TYR63       0.0417
     20  CE2       -1.9430   47.9570    8.7220 C.ar   63  TYR63       0.0417
     21  CZ        -1.3450   47.9770    9.9830 C.ar   63  TYR63       0.1957
     22  OH        -0.8210   46.8090   10.4440 O.3    63  TYR63      -0.2866
     23  N          1.5020   54.1620    6.0700 N.3    98  HIS98      -0.1241
     24  CA         1.7250   52.7590    6.3560 C.3    98  HIS98       0.1621
     25  C          1.0290   51.8280    5.3990 C.2    98  HIS98       0.2264
     26  O          0.0650   51.2100    5.8050 O.2    98  HIS98      -0.2867
     27  CB         1.3970   52.5190    7.8310 C.3    98  HIS98       0.0745
     28  CG         1.9000   51.2630    8.4370 C.ar   98  HIS98       0.0817
     29  ND1        3.1410   51.1900    9.0450 N.ar   98  HIS98      -0.2268
     30  CD2        1.3380   50.0280    8.5540 C.ar   98  HIS98       0.1154
     31  CE1        3.3000   49.9700    9.5070 C.ar   98  HIS98       0.1986
     32  NE2        2.2320   49.2300    9.2180 N.ar   98  HIS98      -0.2212
     33  N          0.6890   48.2950    3.3450 N.3   100  LEU100     -0.1245
     34  CA         0.9400   46.8960    3.6550 C.3   100  LEU100      0.1561
     35  C          0.0830   46.0220    2.7460 C.2   100  LEU100      0.2260
     36  O          0.6080   45.5330    1.7320 O.2   100  LEU100     -0.2867
     37  CB         0.6890   46.6290    5.1490 C.3   100  LEU100      0.0270
     38  CG         1.0360   45.2000    5.5860 C.3   100  LEU100      0.0019
     39  CD1        2.4790   44.8520    5.3010 C.3   100  LEU100      0.0001
     40  CD2        0.6230   44.9590    7.0220 C.3   100  LEU100      0.0001
     41  N          5.8220   49.4450    3.7800 N.3   136  GLU136     -0.1245
     42  CA         6.2820   48.1920    3.2790 C.3   136  GLU136      0.1567
     43  C          5.7790   47.7710    1.9090 C.2   136  GLU136      0.2260
     44  O          4.8350   46.9980    1.7770 O.2   136  GLU136     -0.2867
     45  CB         5.8770   47.0610    4.2970 C.3   136  GLU136      0.0388
     46  CG         6.9020   46.9760    5.4120 C.3   136  GLU136      0.1160
     47  CD         6.7590   45.8960    6.4440 C.2   136  GLU136      0.3649
     48  OE1        5.7880   45.1510    6.4270 O.co2 136  GLU136     -0.2457
     49  OE2        7.6830   45.8100    7.3040 O.co2 136  GLU136     -0.2457
     50  N         10.1230   43.6270   -0.9700 N.3   174  THR174     -0.1203
     51  CA         9.9830   42.5160   -0.0250 C.3   174  THR174      0.1994
     52  C          9.7770   42.9820    1.4010 C.2   174  THR174      0.2617
     53  O         10.4520   42.5590    2.3160 O.2   174  THR174     -0.2717
     54  CB        11.1780   41.5550   -0.1750 C.3   174  THR174      0.1784
     55  OG1       11.2070   41.2540   -1.5950 O.3   174  THR174     -0.2211
     56  CG2       10.9750   40.2150    0.5020 C.3   174  THR174      0.0376
     57  N          8.7370   43.7830    1.6370 N.am  175  TRP175     -0.1975
     58  CA         8.4390   44.2630    2.9760 C.3   175  TRP175      0.1640
     59  C          9.6050   45.0230    3.5550 C.2   175  TRP175      0.2290
     60  O          9.9930   44.8250    4.7160 O.2   175  TRP175     -0.2864
     61  CB         8.0130   43.1200    3.9100 C.3   175  TRP175      0.0576
     62  CG         6.7320   42.4910    3.5140 C.ar  175  TRP175      0.0006
     63  CD1        5.4680   42.8680    3.8730 C.ar  175  TRP175      0.0946
     64  CD2        6.5590   41.3510    2.6630 C.ar  175  TRP175      0.0152
     65  NE1        4.5400   42.0580    3.2980 N.ar  175  TRP175     -0.2442
     66  CE2        5.2000   41.1140    2.5460 C.ar  175  TRP175      0.0810
     67  CE3        7.4510   40.5140    1.9810 C.ar  175  TRP175      0.0012
     68  CZ2        4.6560   40.0680    1.7800 C.ar  175  TRP175      0.0191
     69  CZ3        6.9400   39.4790    1.2190 C.ar  175  TRP175      0.0001
     70  CH2        5.5710   39.2900    1.1400 C.ar  175  TRP175      0.0015
     71  N         12.8330   44.9250    2.8330 N.3   177  GLN177     -0.1245
     72  CA        14.0450   44.1350    3.0490 C.3   177  GLN177      0.1566
     73  C         15.0750   44.3700    1.9590 C.2   177  GLN177      0.2260
     74  O         16.2740   44.2570    2.2070 O.2   177  GLN177     -0.2867
     75  CB        13.7920   42.6380    3.0810 C.3   177  GLN177      0.0367
     76  CG        12.8810   42.2350    4.2350 C.3   177  GLN177      0.0905
     77  CD        12.5360   40.7510    4.1340 C.2   177  GLN177      0.2608
     78  OE1       11.6040   40.2800    4.7760 O.2   177  GLN177     -0.2717
     79  NE2       13.2520   40.0530    3.2550 N.am  177  GLN177     -0.0878
     80  N         13.3050   46.5670    7.5150 N.3   197  HIS197     -0.1241
     81  CA        12.4880   45.9630    8.5410 C.3   197  HIS197      0.1621
     82  C         12.8180   44.4790    8.7590 C.2   197  HIS197      0.2264
     83  O         13.1200   43.7410    7.8210 O.2   197  HIS197     -0.2867
     84  CB        11.0090   46.0600    8.2430 C.3   197  HIS197      0.0745
     85  CG        10.5150   47.4780    8.0950 C.ar  197  HIS197      0.0817
     86  ND1        9.2450   47.7260    7.6320 N.ar  197  HIS197     -0.2268
     87  CD2       11.0790   48.6760    8.3210 C.ar  197  HIS197      0.1154
     88  CE1        9.0480   49.0210    7.5670 C.ar  197  HIS197      0.1986
     89  NE2       10.1540   49.6330    7.9720 N.ar  197  HIS197     -0.2212
     90  N         12.1360   40.8610   11.6830 N.3   199  TYR199     -0.1241
     91  CA        11.5330   40.1740   12.8100 C.3   199  TYR199      0.1605
     92  C         12.5730   39.1940   13.3810 C.2   199  TYR199      0.2264
     93  O         13.0040   38.2780   12.6600 O.2   199  TYR199     -0.2867
     94  CB        10.2820   39.4080   12.4260 C.3   199  TYR199      0.0534
     95  CG         9.0460   40.2670   12.4860 C.ar  199  TYR199     -0.0201
     96  CD1        8.4020   40.3790   13.7200 C.ar  199  TYR199     -0.0009
     97  CD2        8.5410   40.9360   11.4100 C.ar  199  TYR199     -0.0009
     98  CE1        7.2680   41.1660   13.8410 C.ar  199  TYR199      0.0417
     99  CE2        7.4240   41.7410   11.5290 C.ar  199  TYR199      0.0417
    100  CZ         6.7890   41.8330   12.7340 C.ar  199  TYR199      0.1957
    101  OH         5.6400   42.5930   12.8970 O.3   199  TYR199     -0.2866
    102  N         14.2620   36.4760   10.7180 N.3   203  HIS203     -0.1241
    103  CA        15.3920   36.9690    9.9680 C.3   203  HIS203      0.1621
    104  C         16.7090   36.9410   10.6770 C.2   203  HIS203      0.2264
    105  O         16.8290   37.2710   11.8550 O.2   203  HIS203     -0.2867
    106  CB        15.0650   38.4290    9.4900 C.3   203  HIS203      0.0745
    107  CG        13.7020   38.4860    8.8900 C.ar  203  HIS203      0.0817
    108  ND1       12.6710   39.2500    9.3740 N.ar  203  HIS203     -0.2268
    109  CD2       13.2080   37.8370    7.7830 C.ar  203  HIS203      0.1154
    110  CE1       11.5920   39.0670    8.6150 C.ar  203  HIS203      0.1986
    111  NE2       11.8960   38.2020    7.6400 N.ar  203  HIS203     -0.2212
    112  N         10.9050   49.8940   11.4840 N.3   225  GLU225     -0.1245
    113  CA        10.0200   48.9040   12.0830 C.3   225  GLU225      0.1567
    114  C         10.7910   47.5990   12.3140 C.2   225  GLU225      0.2260
    115  O         11.3660   47.0690   11.3420 O.2   225  GLU225     -0.2867
    116  CB         8.8500   48.6060   11.1480 C.3   225  GLU225      0.0388
    117  CG         7.7280   47.7810   11.6970 C.3   225  GLU225      0.1160
    118  CD         6.5150   47.8230   10.8090 C.2   225  GLU225      0.3649
    119  OE1        5.9870   48.9030   10.5530 O.co2 225  GLU225     -0.2457
    120  OE2        6.1010   46.7200   10.3490 O.co2 225  GLU225     -0.2457
    121  N          7.7300   36.8370   12.3790 N.3   231  ALA231     -0.1231
    122  CA         6.7840   37.5590   11.5490 C.3   231  ALA231      0.1694
    123  C          5.4020   36.9490   11.7120 C.2   231  ALA231      0.2592
    124  O          4.3480   37.5690   11.7250 O.2   231  ALA231     -0.2718
    125  CB         7.2420   37.5460   10.0890 C.3   231  ALA231      0.0304
    126  N          5.3770   35.6290   11.9010 N.am  232  THR232     -0.1953
    127  CA         4.1500   34.8850   12.1250 C.3   232  THR232      0.1897
    128  C          3.5330   35.2750   13.4610 C.2   232  THR232      0.2313
    129  O          2.3260   35.1910   13.5850 O.2   232  THR232     -0.2863
    130  CB         4.4850   33.3740   12.1500 C.3   232  THR232      0.1794
    131  OG1        5.3400   33.1590   13.2890 O.3   232  THR232     -0.2208
    132  CG2        5.2210   32.9220   10.8950 C.3   232  THR232      0.0378
    133  N          8.3330   47.7370   16.7850 N.3   259  TRP259     -0.1241
    134  CA         6.9150   47.4720   16.5850 C.3   259  TRP259      0.1605
    135  C          6.4460   46.4730   17.6390 C.2   259  TRP259      0.2264
    136  O          7.0110   45.3760   17.7030 O.2   259  TRP259     -0.2867
    137  CB         6.7720   46.8450   15.2040 C.3   259  TRP259      0.0550
    138  CG         5.3750   46.4620   14.8610 C.ar  259  TRP259      0.0003
    139  CD1        4.6900   45.3080   15.0770 C.ar  259  TRP259      0.0946
    140  CD2        4.4590   47.3750   14.1940 C.ar  259  TRP259      0.0152
    141  NE1        3.4170   45.4410   14.5790 N.ar  259  TRP259     -0.2442
    142  CE2        3.2640   46.6920   14.0430 C.ar  259  TRP259      0.0810
    143  CE3        4.5690   48.6770   13.7060 C.ar  259  TRP259      0.0012
    144  CZ2        2.1370   47.2760   13.4230 C.ar  259  TRP259      0.0191
    145  CZ3        3.4730   49.2810   13.1110 C.ar  259  TRP259      0.0001
    146  CH2        2.2750   48.5610   12.9690 C.ar  259  TRP259      0.0015
    147  N         -0.4140   39.8740   21.0210 N.3   266  GLU266     -0.1245
    148  CA         0.4980   39.2950   20.0470 C.3   266  GLU266      0.1567
    149  C          1.8790   39.5380   20.6200 C.2   266  GLU266      0.2260
    150  O          2.1430   40.4840   21.3690 O.2   266  GLU266     -0.2867
    151  CB         0.2500   39.8920   18.6550 C.3   266  GLU266      0.0388
    152  CG         0.6980   41.3600   18.5860 C.3   266  GLU266      0.1160
    153  CD         0.3540   41.9630   17.2260 C.2   266  GLU266      0.3649
    154  OE1       -0.2780   41.2640   16.4000 O.co2 266  GLU266     -0.2457
    155  OE2        0.7280   43.1290   16.9710 O.co2 266  GLU266     -0.2457
    156  N          4.7480   40.5210   19.5420 N.3   268  SER268     -0.1217
    157  CA         5.5010   41.7660   19.3090 C.3   268  SER268      0.1889
    158  C          4.9700   42.9530   20.1260 C.2   268  SER268      0.2288
    159  O          5.7100   43.9470   20.2340 O.2   268  SER268     -0.2866
    160  CB         5.4350   42.1080   17.8110 C.3   268  SER268      0.2089
    161  OG         4.1190   42.3970   17.4340 O.3   268  SER268     -0.2183
@<TRIPOS>BOND
     1    55    54    1
     2    50    51    1
     3    54    51    1
     4    54    56    1
     5    51    52    1
     6    70    69   ar
     7    70    68   ar
     8    69    67   ar
     9    52    57   am
    10    52    53    2
    11    57    58    1
    12    36    35    2
    13    44    43    2
    14    68    66   ar
    15    43    42    1
    16    73    74    2
    17    73    72    1
    18    67    64   ar
    19    66    64   ar
    20    66    65   ar
    21    64    62   ar
    22    35    34    1
    23    71    72    1
    24    58    59    1
    25    58    61    1
    26    72    75    1
    27    75    76    1
    28    79    77   am
    29    42    41    1
    30    42    45    1
    31    65    63   ar
    32    33    34    1
    33    62    63   ar
    34    62    61    1
    35    59    60    2
    36    34    37    1
    37    77    76    1
    38    77    78    2
    39    45    46    1
    40    37    38    1
    41    39    38    1
    42    25    26    2
    43    25    24    1
    44    46    47    1
    45    38    40    1
    46    23    24    1
    47    24    27    1
    48    48    47   ar
    49    47    49   ar
    50    13    14    2
    51    13    12    1
    52    80    81    1
    53    88    86   ar
    54    88    89   ar
    55    86    85   ar
    56   111   109   ar
    57   111   110   ar
    58   109   107   ar
    59    83    82    2
    60    27    28    1
    61    12    15    1
    62    12    11    1
    63    89    87   ar
    64    85    84    1
    65    85    87   ar
    66    18    20   ar
    67    18    16   ar
    68    84    81    1
    69    15    16    1
    70    28    30   ar
    71    28    29   ar
    72    81    82    1
    73    30    32   ar
    74   110   108   ar
    75    20    21   ar
    76   107   108   ar
    77   107   106    1
    78    16    17   ar
    79    29    31   ar
    80    32    31   ar
    81   106   103    1
    82   103   104    1
    83   103   102    1
    84    21    22    1
    85    21    19   ar
    86   125   122    1
    87    17    19   ar
    88   120   118   ar
    89   119   118   ar
    90   104   105    2
    91   118   117    1
    92   132   130    1
    93   116   117    1
    94   116   113    1
    95   115   114    2
    96    97    99   ar
    97    97    95   ar
    98   112   113    1
    99    99   100   ar
   100   122   123    1
   101   122   121    1
   102    90    91    1
   103   123   124    2
   104   123   126   am
   105   126   127    1
   106   113   114    1
   107   127   130    1
   108   127   128    1
   109   130   131    1
   110    94    95    1
   111    94    91    1
   112    95    96   ar
   113    93    92    2
   114   100   101    1
   115   100    98   ar
   116    91    92    1
   117   146   145   ar
   118   146   144   ar
   119   145   143   ar
   120   144   142   ar
   121   128   129    2
   122   143   140   ar
   123    96    98   ar
   124   142   140   ar
   125   142   141   ar
   126   140   138   ar
   127   141   139   ar
   128   138   139   ar
   129   138   137    1
   130     9     7   ar
   131     9    10   ar
   132     4     3    2
   133     3     2    1
   134   137   134    1
   135     7     6   ar
   136    10     8   ar
   137     2     5    1
   138     2     1    1
   139     6     8   ar
   140     6     5    1
   141   154   153   ar
   142   134   133    1
   143   134   135    1
   144   155   153   ar
   145   153   152    1
   146   161   160    1
   147   135   136    2
   148   160   157    1
   149   152   151    1
   150   151   148    1
   151   157   156    1
   152   157   158    1
   153   148   149    1
   154   148   147    1
   155   158   159    2
   156   149   150    2
