@<TRIPOS>MOLECULE
tmp/1e5nA00.pdb
 240 232 0 0 0
SMALL
GASTEIGER

@<TRIPOS>ATOM
      1  N         85.3790   35.1990   87.9050 N.3    43  GLU43      -0.1231
      2  CA        84.5480   35.2340   86.7120 C.3    43  GLU43       0.1699
      3  C         85.3980   35.1330   85.4230 C.2    43  GLU43       0.2592
      4  O         85.0380   34.4290   84.4990 O.2    43  GLU43      -0.2718
      5  CB        83.6680   36.4930   86.7100 C.3    43  GLU43       0.0402
      6  CG        82.7730   36.5790   85.5060 C.3    43  GLU43       0.1161
      7  CD        82.1120   37.9440   85.2570 C.2    43  GLU43       0.3649
      8  OE1       82.3850   38.9220   86.0020 O.co2  43  GLU43      -0.2457
      9  OE2       81.3190   38.0280   84.2800 O.co2  43  GLU43      -0.2457
     10  N         86.5880   35.7230   85.3930 N.am   44  ASN44      -0.1974
     11  CA        87.3920   35.6840   84.1750 C.3    44  ASN44       0.1688
     12  C         88.8980   35.5320   84.2660 C.2    44  ASN44       0.2292
     13  O         89.5200   35.0150   83.3380 O.2    44  ASN44      -0.2864
     14  CB        87.1860   36.9670   83.4010 C.3    44  ASN44       0.1181
     15  CG        86.0070   36.9040   82.4860 C.2    44  ASN44       0.2629
     16  OD1       85.9920   36.1470   81.5000 O.2    44  ASN44      -0.2716
     17  ND2       85.0370   37.7590   82.7490 N.am   44  ASN44      -0.0877
     18  N         90.9230   32.0840   83.6470 N.3    47  LYS47      -0.1245
     19  CA        90.7670   31.3190   82.4280 C.3    47  LYS47       0.1561
     20  C         92.1600   31.1390   81.8190 C.2    47  LYS47       0.2260
     21  O         93.0570   31.9110   82.1180 O.2    47  LYS47      -0.2867
     22  CB        89.7660   32.0050   81.5070 C.3    47  LYS47       0.0271
     23  CG        88.3710   31.9170   82.1230 C.3    47  LYS47       0.0035
     24  CD        87.2470   32.5110   81.3290 C.3    47  LYS47       0.0206
     25  CE        85.9250   32.2810   82.0930 C.3    47  LYS47       0.1093
     26  NZ        84.7700   32.9950   81.4880 N.3    47  LYS47      -0.1314
     27  N         88.2270   28.2810   87.8800 N.3    79  HIS79      -0.1241
     28  CA        87.4610   28.2290   86.6410 C.3    79  HIS79       0.1621
     29  C         88.3630   28.8680   85.6110 C.2    79  HIS79       0.2264
     30  O         88.5570   30.0870   85.6620 O.2    79  HIS79      -0.2867
     31  CB        86.2100   29.0970   86.8270 C.3    79  HIS79       0.0745
     32  CG        85.2880   29.1330   85.6620 C.ar   79  HIS79       0.0817
     33  ND1       84.7450   27.9900   85.0830 N.ar   79  HIS79      -0.2268
     34  CD2       84.7590   30.1720   84.9690 C.ar   79  HIS79       0.1154
     35  CE1       83.9320   28.3260   84.1020 C.ar   79  HIS79       0.1986
     36  NE2       83.9150   29.6540   84.0100 N.ar   79  HIS79      -0.2212
     37  N         89.3520   24.9470   78.6050 N.3    83  TRP83      -0.1241
     38  CA        88.1040   25.5190   78.0490 C.3    83  TRP83       0.1605
     39  C         88.4080   25.9680   76.6280 C.2    83  TRP83       0.2264
     40  O         89.4970   26.4240   76.3160 O.2    83  TRP83      -0.2867
     41  CB        87.6270   26.6870   78.9330 C.3    83  TRP83       0.0550
     42  CG        86.2360   27.1940   78.6390 C.ar   83  TRP83       0.0003
     43  CD1       85.1570   26.4810   78.2460 C.ar   83  TRP83       0.0946
     44  CD2       85.8180   28.5550   78.6900 C.ar   83  TRP83       0.0152
     45  NE1       84.0820   27.3020   78.0330 N.ar   83  TRP83      -0.2442
     46  CE2       84.4700   28.5880   78.2940 C.ar   83  TRP83       0.0810
     47  CE3       86.4620   29.7580   79.0160 C.ar   83  TRP83       0.0012
     48  CZ2       83.7430   29.7780   78.2050 C.ar   83  TRP83       0.0191
     49  CZ3       85.7390   30.9580   78.9230 C.ar   83  TRP83       0.0001
     50  CH2       84.3960   30.9540   78.5200 C.ar   83  TRP83       0.0015
     51  N         89.0430   33.4250   72.4880 N.3    87  TYR87      -0.1241
     52  CA        89.5080   34.6280   73.1700 C.3    87  TYR87       0.1605
     53  C         90.4160   34.3250   74.3410 C.2    87  TYR87       0.2264
     54  O         91.2990   35.1200   74.6200 O.2    87  TYR87      -0.2867
     55  CB        88.3600   35.5360   73.6330 C.3    87  TYR87       0.0534
     56  CG        87.7340   35.1810   74.9640 C.ar   87  TYR87      -0.0201
     57  CD1       86.7290   34.2330   75.0300 C.ar   87  TYR87      -0.0009
     58  CD2       88.1450   35.7950   76.1560 C.ar   87  TYR87      -0.0009
     59  CE1       86.1350   33.8900   76.2450 C.ar   87  TYR87       0.0417
     60  CE2       87.5610   35.4650   77.3850 C.ar   87  TYR87       0.0417
     61  CZ        86.5490   34.5030   77.4290 C.ar   87  TYR87       0.1957
     62  OH        85.9300   34.1500   78.6310 O.3    87  TYR87      -0.2866
     63  N         85.8140   22.2880   81.0780 N.3   126  ASN126     -0.1225
     64  CA        84.5650   23.0240   81.0100 C.3   126  ASN126      0.1785
     65  C         83.9780   23.0660   79.6000 C.2   126  ASN126      0.2597
     66  O         84.6510   23.4070   78.6330 O.2   126  ASN126     -0.2718
     67  CB        84.7780   24.4430   81.5290 C.3   126  ASN126      0.1169
     68  CG        83.4860   25.1850   81.7000 C.2   126  ASN126      0.2627
     69  OD1       82.5530   24.6840   82.3230 O.2   126  ASN126     -0.2716
     70  ND2       83.3910   26.3720   81.1180 N.am  126  ASN126     -0.0877
     71  N         82.7260   22.6610   79.4810 N.am  127  GLU127     -0.1979
     72  CA        82.0200   22.6920   78.2100 C.3   127  GLU127      0.1602
     73  C         82.5720   21.8820   77.0520 C.2   127  GLU127      0.2287
     74  O         82.6910   22.4190   75.9270 O.2   127  GLU127     -0.2864
     75  CB        81.8380   24.1270   77.7950 C.3   127  GLU127      0.0415
     76  CG        81.1660   24.8750   78.9010 C.3   127  GLU127      0.1163
     77  CD        81.0340   26.3340   78.6750 C.2   127  GLU127      0.3649
     78  OE1       81.2350   26.8300   77.5410 O.co2 127  GLU127     -0.2457
     79  OE2       80.7080   26.9920   79.6590 O.co2 127  GLU127     -0.2457
     80  N         76.9780   21.2520   71.7780 N.3   131  ASP131     -0.1239
     81  CA        75.7290   22.0040   72.0390 C.3   131  ASP131      0.1674
     82  C         75.3020   22.7130   70.7610 C.2   131  ASP131      0.2266
     83  O         76.0060   23.5820   70.2690 O.2   131  ASP131     -0.2867
     84  CB        75.9230   23.0430   73.1420 C.3   131  ASP131      0.1410
     85  CG        74.6360   23.5640   73.6570 C.2   131  ASP131      0.3668
     86  OD1       73.8720   24.1550   72.8730 O.co2 131  ASP131     -0.2456
     87  OD2       74.3760   23.3690   74.8550 O.co2 131  ASP131     -0.2456
     88  N         73.4070   25.0730   70.1270 N.3   133  ALA133     -0.1231
     89  CA        73.3070   26.5250   70.2780 C.3   133  ALA133      0.1694
     90  C         74.5980   27.2450   70.5630 C.2   133  ALA133      0.2592
     91  O         74.5630   28.3810   71.0160 O.2   133  ALA133     -0.2718
     92  CB        72.3160   26.8490   71.3800 C.3   133  ALA133      0.0304
     93  N         75.7300   26.5960   70.3560 N.am  134  ASP134     -0.1974
     94  CA        76.9940   27.2420   70.6600 C.3   134  ASP134      0.1709
     95  C         78.0730   26.3660   70.0660 C.2   134  ASP134      0.2293
     96  O         78.7460   25.6440   70.7920 O.2   134  ASP134     -0.2864
     97  CB        77.1680   27.3220   72.1890 C.3   134  ASP134      0.1436
     98  CG        78.4890   27.9730   72.6180 C.2   134  ASP134      0.3671
     99  OD1       78.9170   28.9630   71.9980 O.co2 134  ASP134     -0.2456
    100  OD2       79.0970   27.5140   73.6120 O.co2 134  ASP134     -0.2456
    101  N         77.0670   23.5210   80.6650 N.3   181  PHE181     -0.1227
    102  CA        75.7590   24.1820   80.7140 C.3   181  PHE181      0.1736
    103  C         74.7060   23.4390   79.8870 C.2   181  PHE181      0.2595
    104  O         75.0470   22.7030   78.9430 O.2   181  PHE181     -0.2718
    105  CB        75.8730   25.6440   80.2330 C.3   181  PHE181      0.0547
    106  CG        76.2380   25.7910   78.7550 C.ar  181  PHE181     -0.0202
    107  CD1       77.5670   25.7040   78.3250 C.ar  181  PHE181     -0.0042
    108  CD2       75.2500   26.0130   77.7910 C.ar  181  PHE181     -0.0042
    109  CE1       77.8880   25.8430   76.9460 C.ar  181  PHE181     -0.0003
    110  CE2       75.5680   26.1530   76.4220 C.ar  181  PHE181     -0.0003
    111  CZ        76.8670   26.0670   76.0040 C.ar  181  PHE181     -0.0000
    112  N         73.4300   23.6520   80.2350 N.am  182  ASN182     -0.1974
    113  CA        72.2930   23.0190   79.5380 C.3   182  ASN182      0.1688
    114  C         72.0350   21.5610   79.9030 C.2   182  ASN182      0.2292
    115  O         70.9930   20.9980   79.5450 O.2   182  ASN182     -0.2864
    116  CB        72.3860   23.1880   78.0070 C.3   182  ASN182      0.1181
    117  CG        71.8420   24.5280   77.5450 C.2   182  ASN182      0.2629
    118  OD1       71.0020   25.1520   78.2260 O.2   182  ASN182     -0.2716
    119  ND2       72.3430   25.0050   76.4020 N.am  182  ASN182     -0.0877
    120  N         68.7340   20.5590   81.3940 N.3   185  GLU185     -0.1245
    121  CA        67.5370   20.5340   80.5510 C.3   185  GLU185      0.1567
    122  C         66.8770   19.1710   80.4840 C.2   185  GLU185      0.2260
    123  O         65.7330   19.0690   80.0620 O.2   185  GLU185     -0.2867
    124  CB        67.8640   20.9500   79.1300 C.3   185  GLU185      0.0388
    125  CG        67.4080   22.3170   78.7940 C.3   185  GLU185      0.1160
    126  CD        67.9050   22.7420   77.4400 C.2   185  GLU185      0.3649
    127  OE1       69.1250   22.6820   77.2040 O.co2 185  GLU185     -0.2457
    128  OE2       67.0920   23.1160   76.5910 O.co2 185  GLU185     -0.2457
    129  N         76.2080   24.3420   85.5550 N.3   213  GLN213     -0.1245
    130  CA        76.2920   25.7950   85.5360 C.3   213  GLN213      0.1566
    131  C         74.9810   26.4420   85.9450 C.2   213  GLN213      0.2260
    132  O         74.9890   27.3720   86.7080 O.2   213  GLN213     -0.2867
    133  CB        76.7420   26.2920   84.1990 C.3   213  GLN213      0.0367
    134  CG        78.1680   25.9890   83.9840 C.3   213  GLN213      0.0905
    135  CD        78.6530   26.4860   82.6620 C.2   213  GLN213      0.2608
    136  OE1       77.9840   27.3550   82.0330 O.2   213  GLN213     -0.2717
    137  NE2       79.7870   25.9150   82.1770 N.am  213  GLN213     -0.0878
    138  N         72.4130   28.1170   84.0230 N.3   215  HIS215     -0.1241
    139  CA        72.0440   29.4500   83.4980 C.3   215  HIS215      0.1621
    140  C         70.6110   29.3180   83.0220 C.2   215  HIS215      0.2264
    141  O         70.3680   29.0630   81.8480 O.2   215  HIS215     -0.2867
    142  CB        72.9580   29.9100   82.3430 C.3   215  HIS215      0.0745
    143  CG        74.3800   30.1860   82.7640 C.ar  215  HIS215      0.0817
    144  ND1       74.7330   31.2860   83.4960 N.ar  215  HIS215     -0.2268
    145  CD2       75.5130   29.4650   82.5880 C.ar  215  HIS215      0.1154
    146  CE1       76.0270   31.2340   83.7740 C.ar  215  HIS215      0.1986
    147  NE2       76.5190   30.1430   83.2340 N.ar  215  HIS215     -0.2212
    148  N         66.1720   30.3120   83.1700 N.3   217  MET217     -0.1245
    149  CA        65.1830   31.3650   83.0480 C.3   217  MET217      0.1570
    150  C         64.1190   31.0700   84.0900 C.2   217  MET217      0.2261
    151  O         64.0570   29.9700   84.6420 O.2   217  MET217     -0.2867
    152  CB        64.5780   31.4290   81.6400 C.3   217  MET217      0.0387
    153  CG        65.4660   32.1810   80.6660 C.3   217  MET217      0.0595
    154  SD        65.3390   31.6010   78.9780 S.3   217  MET217     -0.1393
    155  CE        66.3800   30.0640   79.0430 C.3   217  MET217      0.0692
    156  N         61.9380   28.2550   82.4410 N.3   220  TYR220     -0.1241
    157  CA        62.4840   27.1500   81.6420 C.3   220  TYR220      0.1605
    158  C         63.9210   26.8620   82.0130 C.2   220  TYR220      0.2264
    159  O         64.7280   27.7830   82.0860 O.2   220  TYR220     -0.2867
    160  CB        62.4190   27.4970   80.1720 C.3   220  TYR220      0.0534
    161  CG        62.9420   26.3910   79.3160 C.ar  220  TYR220     -0.0201
    162  CD1       64.2940   26.2370   79.0980 C.ar  220  TYR220     -0.0009
    163  CD2       62.0740   25.4580   78.7660 C.ar  220  TYR220     -0.0009
    164  CE1       64.7750   25.1770   78.3560 C.ar  220  TYR220      0.0417
    165  CE2       62.5340   24.3970   78.0210 C.ar  220  TYR220      0.0417
    166  CZ        63.8840   24.2520   77.8220 C.ar  220  TYR220      0.1957
    167  OH        64.3460   23.1510   77.1460 O.3   220  TYR220     -0.2866
    168  N         77.3900   28.0620   88.2470 N.3   246  CYS246     -0.1235
    169  CA        77.1640   29.4240   87.7720 C.3   246  CYS246      0.1677
    170  C         75.7050   29.8340   87.7540 C.2   246  CYS246      0.2270
    171  O         75.2530   30.4130   86.7650 O.2   246  CYS246     -0.2867
    172  CB        77.7530   29.6210   86.3860 C.3   246  CYS246      0.0956
    173  SG        79.3370   28.9080   86.1340 S.3   246  CYS246     -0.0801
    174  N         67.2340   34.4560   84.4420 N.3   250  ARG250     -0.1245
    175  CA        66.6920   35.5210   83.5760 C.3   250  ARG250      0.1563
    176  C         65.1850   35.6640   83.6470 C.2   250  ARG250      0.2260
    177  O         64.4730   34.6770   83.5100 O.2   250  ARG250     -0.2867
    178  CB        67.0670   35.2670   82.1210 C.3   250  ARG250      0.0307
    179  CG        68.3840   35.8760   81.7130 C.3   250  ARG250      0.0489
    180  CD        69.0200   35.1090   80.5450 C.3   250  ARG250      0.2205
    181  NE        69.3970   33.7350   80.8860 N.pl3 250  ARG250     -0.0865
    182  CZ        69.6410   32.7870   79.9890 C.cat 250  ARG250      0.5346
    183  NH1       69.5620   33.0420   78.6900 N.pl3 250  ARG250      0.1354
    184  NH2       69.9600   31.5750   80.3950 N.pl3 250  ARG250      0.1354
    185  N         62.5150   35.4650   78.5930 N.3   253  ASN253     -0.1240
    186  CA        62.8000   34.2740   77.7640 C.3   253  ASN253      0.1653
    187  C         62.4420   34.6940   76.3380 C.2   253  ASN253      0.2266
    188  O         61.2520   34.8570   75.9910 O.2   253  ASN253     -0.2867
    189  CB        62.0000   33.0490   78.2250 C.3   253  ASN253      0.1155
    190  CG        62.2320   31.8290   77.3300 C.2   253  ASN253      0.2627
    191  OD1       62.8790   31.9370   76.2950 O.2   253  ASN253     -0.2716
    192  ND2       61.7150   30.6850   77.7300 N.am  253  ASN253     -0.0877
    193  N         63.1270   33.0120   73.5500 N.3   255  TYR255     -0.1227
    194  CA        62.9590   31.8390   72.6810 C.3   255  TYR255      0.1736
    195  C         61.5490   31.2190   72.7750 C.2   255  TYR255      0.2595
    196  O         61.2460   30.2510   72.0830 O.2   255  TYR255     -0.2718
    197  CB        63.9620   30.8250   73.1340 C.3   255  TYR255      0.0548
    198  CG        65.3030   31.4060   73.3540 C.ar  255  TYR255     -0.0200
    199  CD1       66.0090   31.9740   72.3060 C.ar  255  TYR255     -0.0009
    200  CD2       65.9110   31.3330   74.6020 C.ar  255  TYR255     -0.0009
    201  CE1       67.3170   32.4470   72.4880 C.ar  255  TYR255      0.0417
    202  CE2       67.2190   31.8040   74.8080 C.ar  255  TYR255      0.0417
    203  CZ        67.9120   32.3560   73.7410 C.ar  255  TYR255      0.1957
    204  OH        69.1960   32.7870   73.9220 O.3   255  TYR255     -0.2866
    205  N         60.7030   31.7830   73.6350 N.am  256  ASP256     -0.1974
    206  CA        59.3620   31.2870   73.8050 C.3   256  ASP256      0.1709
    207  C         58.3940   31.5890   72.6420 C.2   256  ASP256      0.2293
    208  O         57.3020   31.0420   72.5920 O.2   256  ASP256     -0.2864
    209  CB        58.8130   31.7570   75.1640 C.3   256  ASP256      0.1436
    210  CG        58.7980   33.2940   75.3330 C.2   256  ASP256      0.3671
    211  OD1       59.0630   34.0400   74.3720 O.co2 256  ASP256     -0.2456
    212  OD2       58.5040   33.7660   76.4530 O.co2 256  ASP256     -0.2456
    213  N         76.4680   33.3230   89.8550 N.3   305  TRP305     -0.1241
    214  CA        77.3500   33.9810   88.8900 C.3   305  TRP305      0.1605
    215  C         77.3770   35.5270   88.9090 C.2   305  TRP305      0.2264
    216  O         76.9650   36.1920   87.9500 O.2   305  TRP305     -0.2867
    217  CB        77.0410   33.4390   87.4940 C.3   305  TRP305      0.0550
    218  CG        78.2410   33.4540   86.6090 C.ar  305  TRP305      0.0003
    219  CD1       78.3730   34.1200   85.4290 C.ar  305  TRP305      0.0946
    220  CD2       79.5160   32.7810   86.8450 C.ar  305  TRP305      0.0152
    221  NE1       79.6480   33.9280   84.9170 N.ar  305  TRP305     -0.2442
    222  CE2       80.3600   33.1100   85.7610 C.ar  305  TRP305      0.0810
    223  CE3       80.0180   31.9360   87.8590 C.ar  305  TRP305      0.0012
    224  CZ2       81.6520   32.6270   85.6530 C.ar  305  TRP305      0.0191
    225  CZ3       81.2970   31.4580   87.7520 C.ar  305  TRP305      0.0001
    226  CH2       82.1040   31.8010   86.6580 C.ar  305  TRP305      0.0015
    227  N         76.6730   39.1830   83.2600 N.3   313  TRP313     -0.1241
    228  CA        76.9340   39.0530   81.8300 C.3   313  TRP313      0.1605
    229  C         75.6050   39.0900   81.0620 C.2   313  TRP313      0.2264
    230  O         75.5770   39.3390   79.8590 O.2   313  TRP313     -0.2867
    231  CB        77.6750   37.7410   81.5440 C.3   313  TRP313      0.0550
    232  CG        76.8750   36.4740   81.7780 C.ar  313  TRP313      0.0003
    233  CD1       76.3320   36.0100   82.9670 C.ar  313  TRP313      0.0946
    234  CD2       76.5430   35.5030   80.7880 C.ar  313  TRP313      0.0152
    235  NE1       75.6850   34.8060   82.7570 N.ar  313  TRP313     -0.2442
    236  CE2       75.7950   34.4770   81.4310 C.ar  313  TRP313      0.0810
    237  CE3       76.8060   35.3920   79.4110 C.ar  313  TRP313      0.0012
    238  CZ2       75.3160   33.3690   80.7450 C.ar  313  TRP313      0.0191
    239  CZ3       76.3360   34.2950   78.7360 C.ar  313  TRP313      0.0001
    240  CH2       75.5980   33.2930   79.4060 C.ar  313  TRP313      0.0015
@<TRIPOS>BOND
     1    95    94    1
     2    95    96    2
     3    88    89    1
     4    83    82    2
     5    89    90    1
     6    89    92    1
     7    93    90   am
     8    93    94    1
     9    90    91    2
    10    94    97    1
    11    82    81    1
    12    80    81    1
    13    99    98   ar
    14    81    84    1
    15   196   195    2
    16    97    98    1
    17   199   201   ar
    18   199   198   ar
    19    51    52    1
    20   201   203   ar
    21   208   207    2
    22    98   100   ar
    23   207   206    1
    24   194   195    1
    25   194   197    1
    26   194   193    1
    27   195   205   am
    28    86    85   ar
    29   197   198    1
    30    84    85    1
    31    52    55    1
    32    52    53    1
    33   198   200   ar
    34    55    56    1
    35   205   206    1
    36    85    87   ar
    37   203   204    1
    38   203   202   ar
    39   206   209    1
    40    53    54    2
    41   211   210   ar
    42   200   202   ar
    43    56    57   ar
    44    56    58   ar
    45    57    59   ar
    46   209   210    1
    47   210   212   ar
    48    74    73    2
    49   188   187    2
    50   111   110   ar
    51   111   109   ar
    52    58    60   ar
    53    59    61   ar
    54   191   190    2
    55    40    39    2
    56   187   186    1
    57   119   117   am
    58   110   108   ar
    59   128   126   ar
    60    39    38    1
    61   109   107   ar
    62    73    72    1
    63   167   166    1
    64   127   126   ar
    65   190   192   am
    66   190   189    1
    67    60    61   ar
    68    61    62    1
    69   126   125    1
    70    78    77   ar
    71   117   116    1
    72   117   118    2
    73   186   189    1
    74   186   185    1
    75   108   106   ar
    76    75    72    1
    77    75    76    1
    78   166   165   ar
    79   166   164   ar
    80   116   113    1
    81   165   163   ar
    82    45    43   ar
    83    45    46   ar
    84    38    37    1
    85    38    41    1
    86    48    46   ar
    87    48    50   ar
    88    72    71    1
    89    43    42   ar
    90    46    44   ar
    91   107   106   ar
    92   164   162   ar
    93    50    49   ar
    94    66    65    2
    95    42    44   ar
    96    42    41    1
    97    77    76    1
    98    77    79   ar
    99   183   182    1
   100    44    47   ar
   101   239   240   ar
   102   239   237   ar
   103   106   105    1
   104   163   161   ar
   105   125   124    1
   106    49    47   ar
   107   104   103    2
   108   154   155    1
   109   154   153    1
   110   162   161   ar
   111   124   121    1
   112   161   160    1
   113   240   238   ar
   114   237   234   ar
   115    71    65   am
   116   113   114    1
   117   113   112    1
   118   115   114    2
   119    65    64    1
   120   230   229    2
   121   103   112   am
   122   103   102    1
   123   182   184    1
   124   182   181    2
   125   123   122    2
   126   160   157    1
   127   105   102    1
   128   122   121    1
   129   180   181    1
   130   180   179    1
   131   121   120    1
   132   101   102    1
   133   153   152    1
   134   238   236   ar
   135   234   236   ar
   136   234   232   ar
   137    64    63    1
   138    64    67    1
   139   229   228    1
   140    70    68   am
   141    24    25    1
   142    24    23    1
   143   236   235   ar
   144    26    25    1
   145    16    15    2
   146    22    23    1
   147    22    19    1
   148    67    68    1
   149   231   232    1
   150   231   228    1
   151   152   149    1
   152   157   158    1
   153   157   156    1
   154    68    69    2
   155   179   178    1
   156   232   233   ar
   157    20    21    2
   158    20    19    1
   159   228   227    1
   160   141   140    2
   161   158   159    2
   162   136   135    2
   163   178   175    1
   164   137   135   am
   165   142   143    1
   166   142   139    1
   167    19    18    1
   168    15    17   am
   169    15    14    1
   170   145   143   ar
   171   145   147   ar
   172   135   134    1
   173   235   233   ar
   174   143   144   ar
   175   140   139    1
   176   149   148    1
   177   149   150    1
   178   147   146   ar
   179    13    12    2
   180    14    11    1
   181   144   146   ar
   182   139   138    1
   183   177   176    2
   184   175   176    1
   185   175   174    1
   186   134   133    1
   187    36    35   ar
   188    36    34   ar
   189   150   151    2
   190    35    33   ar
   191    11    12    1
   192    11    10    1
   193   133   130    1
   194     9     7   ar
   195     4     3    2
   196   221   219   ar
   197   221   222   ar
   198    34    32   ar
   199    33    32   ar
   200     7     6    1
   201     7     8   ar
   202    10     3   am
   203     3     2    1
   204   219   218   ar
   205     6     5    1
   206   130   129    1
   207   130   131    1
   208    29    30    2
   209    29    28    1
   210   224   222   ar
   211   224   226   ar
   212    32    31    1
   213   222   220   ar
   214   131   132    2
   215   173   172    1
   216   172   169    1
   217   218   220   ar
   218   218   217    1
   219    28    31    1
   220    28    27    1
   221   226   225   ar
   222     5     2    1
   223     2     1    1
   224   171   170    2
   225   220   223   ar
   226   217   214    1
   227   225   223   ar
   228   170   169    1
   229   169   168    1
   230   216   215    2
   231   214   215    1
   232   214   213    1
