@<TRIPOS>MOLECULE
tmp/1e5oA00.pdb
 179 166 0 0 0
SMALL
GASTEIGER

@<TRIPOS>ATOM
      1  N         36.9670    1.8720    5.2810 N.3    33  ASP33      -0.1239
      2  CA        35.8580    0.9500    4.9680 C.3    33  ASP33       0.1674
      3  C         35.5650    0.1370    6.2550 C.2    33  ASP33       0.2266
      4  O         36.4000   -0.6650    6.6610 O.2    33  ASP33      -0.2867
      5  CB        36.3940   -0.0340    3.9030 C.3    33  ASP33       0.1410
      6  CG        35.3650   -1.0270    3.4270 C.2    33  ASP33       0.3668
      7  OD1       34.3110   -1.2000    4.0740 O.co2  33  ASP33      -0.2456
      8  OD2       35.6090   -1.6600    2.3740 O.co2  33  ASP33      -0.2456
      9  N         34.4690   -2.6650    8.3000 N.3    35  ASP35      -0.1239
     10  CA        34.2820   -4.0870    8.0450 C.3    35  ASP35       0.1674
     11  C         33.8750   -4.8970    9.2490 C.2    35  ASP35       0.2266
     12  O         34.6790   -5.1560   10.1520 O.2    35  ASP35      -0.2867
     13  CB        35.6160   -4.6190    7.4630 C.3    35  ASP35       0.1410
     14  CG        35.4850   -6.0180    6.9080 C.2    35  ASP35       0.3668
     15  OD1       34.3550   -6.5440    6.8450 O.co2  35  ASP35      -0.2456
     16  OD2       36.5270   -6.5970    6.5330 O.co2  35  ASP35      -0.2456
     17  N         33.3530   -7.8740    9.1560 N.3    37  GLY37      -0.1210
     18  CA        33.7960   -9.2150    8.8320 C.3    37  GLY37       0.1956
     19  C         35.2610   -9.4410    9.1530 C.2    37  GLY37       0.2613
     20  O         35.7880  -10.5360    8.9540 O.2    37  GLY37      -0.2717
     21  N         35.9270   -8.4050    9.6480 N.am   38  SER38      -0.1938
     22  CA        37.3290   -8.4720   10.0230 C.3    38  SER38       0.2055
     23  C         37.5470   -7.7480   11.3450 C.2    38  SER38       0.2643
     24  O         36.6460   -7.0640   11.8400 O.2    38  SER38      -0.2714
     25  CB        38.2680   -8.0010    8.9470 C.3    38  SER38       0.2130
     26  OG        38.1500   -6.6160    8.6770 O.3    38  SER38      -0.2179
     27  N         38.7310   -7.8950   11.9350 N.am   39  SER39      -0.1949
     28  CA        38.9600   -7.2400   13.2380 C.3    39  SER39       0.1924
     29  C         40.2630   -6.4740   13.2710 C.2    39  SER39       0.2314
     30  O         40.8640   -6.3020   14.3360 O.2    39  SER39      -0.2863
     31  CB        39.0090   -8.3600   14.3110 C.3    39  SER39       0.2116
     32  OG        37.8120   -9.1180   14.2470 O.3    39  SER39      -0.2180
     33  N         47.1540   -9.8680    7.0430 N.3    77  ILE77      -0.1231
     34  CA        45.7660  -10.2400    6.8260 C.3    77  ILE77       0.1692
     35  C         45.4780  -10.6570    5.3900 C.2    77  ILE77       0.2593
     36  O         46.0990  -10.1600    4.4530 O.2    77  ILE77      -0.2718
     37  CB        44.7980   -9.1210    7.2460 C.3    77  ILE77       0.0266
     38  CG1       43.4100   -9.6890    7.5270 C.3    77  ILE77       0.0019
     39  CG2       44.7500   -8.0250    6.2050 C.3    77  ILE77       0.0020
     40  CD1       42.5690   -8.8290    8.4420 C.3    77  ILE77       0.0001
     41  N         44.5320  -11.5760    5.2500 N.am   78  SER78      -0.1938
     42  CA        44.0780  -12.1140    3.9840 C.3    78  SER78       0.2055
     43  C         42.5420  -12.0850    3.9440 C.2    78  SER78       0.2643
     44  O         41.8910  -12.4840    4.9090 O.2    78  SER78      -0.2714
     45  CB        44.5260  -13.5850    3.8410 C.3    78  SER78       0.2130
     46  OG        45.7950  -13.6620    3.2160 O.3    78  SER78      -0.2179
     47  N         41.9860  -11.6140    2.8340 N.am   79  TYR79      -0.1959
     48  CA        40.5310  -11.5330    2.7060 C.3    79  TYR79       0.1771
     49  C         39.9520  -12.5930    1.8000 C.2    79  TYR79       0.2620
     50  O         40.6360  -13.1250    0.9200 O.2    79  TYR79      -0.2715
     51  CB        40.1190  -10.1200    2.2890 C.3    79  TYR79       0.0574
     52  CG        40.5560   -9.0670    3.2880 C.ar   79  TYR79      -0.0198
     53  CD1       39.7890   -8.7900    4.4120 C.ar   79  TYR79      -0.0009
     54  CD2       41.7400   -8.3670    3.1150 C.ar   79  TYR79      -0.0009
     55  CE1       40.1830   -7.8340    5.3320 C.ar   79  TYR79       0.0417
     56  CE2       42.1470   -7.4120    4.0310 C.ar   79  TYR79       0.0417
     57  CZ        41.3620   -7.1500    5.1330 C.ar   79  TYR79       0.1957
     58  OH        41.7630   -6.1970    6.0410 O.3    79  TYR79      -0.2866
     59  N         38.6810  -12.9330    2.0100 N.am   80  GLY80      -0.1940
     60  CA        38.0540  -13.9460    1.1740 C.3    80  GLY80       0.2014
     61  C         38.2330  -13.5820   -0.2890 C.2    80  GLY80       0.2638
     62  O         38.1120  -14.4330   -1.1660 O.2    80  GLY80      -0.2714
     63  N         38.5420  -12.3130   -0.5110 N.am   81  ASP81      -0.1971
     64  CA        38.7760  -11.6740   -1.7660 C.3    81  ASP81       0.1709
     65  C         40.0810  -12.1310   -2.4350 C.2    81  ASP81       0.2293
     66  O         40.2640  -11.9580   -3.6390 O.2    81  ASP81      -0.2864
     67  CB        39.0550  -10.1400   -1.4210 C.3    81  ASP81       0.1436
     68  CG        38.1990   -9.2530   -2.2920 C.2    81  ASP81       0.3671
     69  OD1       37.4940   -9.7770   -3.1790 O.co2  81  ASP81      -0.2456
     70  OD2       38.2290   -8.0200   -2.0910 O.co2  81  ASP81      -0.2456
     71  N         42.5670  -10.8400   -1.3560 N.3    83  SER83      -0.1217
     72  CA        43.2030   -9.6130   -0.9490 C.3    83  SER83       0.1889
     73  C         44.1150   -9.8670    0.2630 C.2    83  SER83       0.2288
     74  O         43.8170  -10.7240    1.0900 O.2    83  SER83      -0.2866
     75  CB        42.1090   -8.6040   -0.4850 C.3    83  SER83       0.2089
     76  OG        41.7030   -7.8030   -1.5790 O.3    83  SER83      -0.2183
     77  N         44.7070   -5.1840   -5.5640 N.3   115  SER115     -0.1202
     78  CA        43.3110   -4.7940   -5.4250 C.3   115  SER115      0.2020
     79  C         43.1680   -3.4780   -4.6740 C.2   115  SER115      0.2618
     80  O         42.4220   -2.5900   -5.0910 O.2   115  SER115     -0.2717
     81  CB        42.5150   -5.9020   -4.7370 C.3   115  SER115      0.2103
     82  OG        42.1340   -5.5270   -3.4260 O.3   115  SER115     -0.2182
     83  N         43.8850   -3.3460   -3.5620 N.am  116  PHE116     -0.1975
     84  CA        43.8380   -2.1330   -2.7590 C.3   116  PHE116      0.1639
     85  C         44.4220   -0.9370   -3.4900 C.2   116  PHE116      0.2290
     86  O         43.8250    0.1420   -3.5200 O.2   116  PHE116     -0.2864
     87  CB        44.5250   -2.3460   -1.4110 C.3   116  PHE116      0.0560
     88  CG        43.7900   -3.3000   -0.5100 C.ar  116  PHE116     -0.0200
     89  CD1       42.5480   -2.9680    0.0020 C.ar  116  PHE116     -0.0042
     90  CD2       44.3220   -4.5410   -0.2110 C.ar  116  PHE116     -0.0042
     91  CE1       41.8560   -3.8490    0.8110 C.ar  116  PHE116     -0.0003
     92  CE2       43.6430   -5.4260    0.6060 C.ar  116  PHE116     -0.0003
     93  CZ        42.4050   -5.0810    1.1150 C.ar  116  PHE116     -0.0000
     94  N         39.5740    4.2100   -1.0320 N.3   122  ILE122     -0.1245
     95  CA        39.6680    3.5540    0.2850 C.3   122  ILE122      0.1561
     96  C         41.0730    3.6730    0.8470 C.2   122  ILE122      0.2260
     97  O         42.0350    3.1740    0.2580 O.2   122  ILE122     -0.2867
     98  CB        39.2040    2.1000    0.2090 C.3   122  ILE122      0.0252
     99  CG1       37.6790    2.0530   -0.0170 C.3   122  ILE122      0.0019
    100  CG2       39.5700    1.3160    1.4550 C.3   122  ILE122      0.0019
    101  CD1       37.2200    0.8350   -0.7770 C.3   122  ILE122      0.0001
    102  N         41.0150    0.0470    6.3310 N.3   125  LEU125     -0.1245
    103  CA        39.8330   -0.6330    6.8500 C.3   125  LEU125      0.1561
    104  C         39.7390   -0.4990    8.3720 C.2   125  LEU125      0.2260
    105  O         40.7500   -0.3730    9.0610 O.2   125  LEU125     -0.2867
    106  CB        39.9590   -2.1430    6.5100 C.3   125  LEU125      0.0270
    107  CG        39.3360   -2.5730    5.1820 C.3   125  LEU125      0.0019
    108  CD1       40.2910   -2.3050    4.0280 C.3   125  LEU125      0.0001
    109  CD2       38.9470   -4.0430    5.2320 C.3   125  LEU125      0.0001
    110  N         39.8160  -12.2940   16.1050 N.3   133  LEU133     -0.1245
    111  CA        40.2640  -12.3500   14.7290 C.3   133  LEU133      0.1561
    112  C         41.4470  -11.4510   14.4390 C.2   133  LEU133      0.2260
    113  O         42.0350  -11.5140   13.3540 O.2   133  LEU133     -0.2867
    114  CB        39.1310  -12.0640   13.7490 C.3   133  LEU133      0.0270
    115  CG        38.0150  -13.0960   13.6090 C.3   133  LEU133      0.0019
    116  CD1       37.0100  -12.6660   12.5510 C.3   133  LEU133      0.0001
    117  CD2       38.5630  -14.4770   13.3070 C.3   133  LEU133      0.0001
    118  N         32.8830  -14.1780   14.1610 N.3   194  PHE194     -0.1241
    119  CA        32.1200  -13.3130   13.2500 C.3   194  PHE194      0.1605
    120  C         30.7530  -12.9950   13.8760 C.2   194  PHE194      0.2264
    121  O         30.3440  -13.6320   14.8430 O.2   194  PHE194     -0.2867
    122  CB        31.8190  -14.1040   11.9510 C.3   194  PHE194      0.0534
    123  CG        33.0130  -14.3430   11.0850 C.ar  194  PHE194     -0.0203
    124  CD1       33.7300  -13.2900   10.5440 C.ar  194  PHE194     -0.0042
    125  CD2       33.3980  -15.6330   10.7520 C.ar  194  PHE194     -0.0042
    126  CE1       34.8250  -13.5210    9.7360 C.ar  194  PHE194     -0.0003
    127  CE2       34.4890  -15.8810    9.9380 C.ar  194  PHE194     -0.0003
    128  CZ        35.2030  -14.8120    9.4240 C.ar  194  PHE194     -0.0000
    129  N         26.8900  -14.7800    8.0720 N.3   217  ILE217     -0.1245
    130  CA        27.4350  -13.7130    8.9320 C.3   217  ILE217      0.1561
    131  C         27.0600  -12.3420    8.3770 C.2   217  ILE217      0.2260
    132  O         26.9370  -12.1730    7.1650 O.2   217  ILE217     -0.2867
    133  CB        28.9850  -13.8120    8.9600 C.3   217  ILE217      0.0252
    134  CG1       29.5360  -13.5890    7.5470 C.3   217  ILE217      0.0019
    135  CG2       29.4020  -15.1850    9.4730 C.3   217  ILE217      0.0019
    136  CD1       31.0300  -13.3790    7.4910 C.3   217  ILE217      0.0001
    137  N         28.1700   -9.0780    7.2560 N.3   219  ASP219     -0.1239
    138  CA        29.4570   -8.5280    6.8310 C.3   219  ASP219      0.1674
    139  C         29.3350   -7.2600    6.0160 C.2   219  ASP219      0.2266
    140  O         29.0560   -7.2880    4.8130 O.2   219  ASP219     -0.2867
    141  CB        30.1830   -9.6200    6.0190 C.3   219  ASP219      0.1410
    142  CG        31.5970   -9.2450    5.6540 C.2   219  ASP219      0.3668
    143  OD1       32.0330   -8.1260    5.9920 O.co2 219  ASP219     -0.2456
    144  OD2       32.2870  -10.0730    5.0210 O.co2 219  ASP219     -0.2456
    145  N         31.6520   -5.5190    5.0840 N.3   221  GLY221     -0.1210
    146  CA        32.8030   -5.4590    4.2080 C.3   221  GLY221      0.1956
    147  C         32.6220   -6.2050    2.9020 C.2   221  GLY221      0.2612
    148  O         33.4940   -6.1660    2.0300 O.2   221  GLY221     -0.2717
    149  N         31.4910   -6.8860    2.7570 N.am  222  THR222     -0.1952
    150  CA        31.2070   -7.6430    1.5300 C.3   222  THR222      0.1897
    151  C         30.0820   -6.9500    0.7600 C.2   222  THR222      0.2313
    152  O         29.0780   -6.5490    1.3460 O.2   222  THR222     -0.2863
    153  CB        30.7830   -9.0870    1.8610 C.3   222  THR222      0.1794
    154  OG1       31.9220   -9.8260    2.3220 O.3   222  THR222     -0.2208
    155  CG2       30.2100   -9.7680    0.6310 C.3   222  THR222      0.0378
    156  N         32.7180  -20.4190   -1.3260 N.3   300  ILE300     -0.1245
    157  CA        33.1950  -19.6320   -0.1950 C.3   300  ILE300      0.1561
    158  C         33.3090  -20.4470    1.0770 C.2   300  ILE300      0.2260
    159  O         34.2580  -20.2880    1.8500 O.2   300  ILE300     -0.2867
    160  CB        32.3260  -18.3940    0.0560 C.3   300  ILE300      0.0252
    161  CG1       32.2500  -17.5150   -1.1900 C.3   300  ILE300      0.0019
    162  CG2       32.8180  -17.6040    1.2520 C.3   300  ILE300      0.0019
    163  CD1       30.8510  -17.3880   -1.7590 C.3   300  ILE300      0.0001
    164  N         30.9840  -20.3780    3.4120 N.3   302  ILE302     -0.1245
    165  CA        30.0960  -19.7420    4.3740 C.3   302  ILE302      0.1561
    166  C         29.1360  -18.7830    3.6910 C.2   302  ILE302      0.2260
    167  O         29.4670  -18.1660    2.6760 O.2   302  ILE302     -0.2867
    168  CB        30.8530  -19.0380    5.5000 C.3   302  ILE302      0.0252
    169  CG1       30.0240  -19.0100    6.7880 C.3   302  ILE302      0.0019
    170  CG2       31.2920  -17.6440    5.1110 C.3   302  ILE302      0.0019
    171  CD1       30.7890  -18.5110    7.9950 C.3   302  ILE302      0.0001
    172  N         27.1310  -15.3440    3.2440 N.3   304  ILE304     -0.1245
    173  CA        27.4360  -13.9780    3.6170 C.3   304  ILE304      0.1561
    174  C         26.3250  -12.9910    3.3460 C.2   304  ILE304      0.2260
    175  O         25.9220  -12.7810    2.2020 O.2   304  ILE304     -0.2867
    176  CB        28.7170  -13.4680    2.9040 C.3   304  ILE304      0.0252
    177  CG1       29.8980  -14.3790    3.2320 C.3   304  ILE304      0.0019
    178  CG2       29.0130  -12.0370    3.3510 C.3   304  ILE304      0.0019
    179  CD1       31.1670  -13.9980    2.4950 C.3   304  ILE304      0.0001
@<TRIPOS>BOND
     1    77    78    1
     2    78    81    1
     3    78    79    1
     4    80    79    2
     5    81    82    1
     6    79    83   am
     7    66    65    2
     8    83    84    1
     9    86    85    2
    10    85    84    1
    11    69    68   ar
    12    84    87    1
    13    65    64    1
    14    68    70   ar
    15    68    67    1
    16    64    67    1
    17    64    63    1
    18   163   161    1
    19    76    75    1
    20    87    88    1
    21    71    72    1
    22   156   157    1
    23   161   160    1
    24    62    61    2
    25    94    95    1
    26    72    75    1
    27    72    73    1
    28   101    99    1
    29    63    61   am
    30    88    90   ar
    31    88    89   ar
    32    61    60    1
    33    90    92   ar
    34   157   160    1
    35   157   158    1
    36    99    98    1
    37    89    91   ar
    38   160   162    1
    39    98    95    1
    40    98   100    1
    41    97    96    2
    42    73    74    2
    43    95    96    1
    44    92    93   ar
    45   155   153    1
    46   151   152    2
    47   151   150    1
    48    91    93   ar
    49    50    49    2
    50   158   159    2
    51    60    59    1
    52   150   153    1
    53   150   149    1
    54    49    59   am
    55    49    48    1
    56   153   154    1
    57   148   147    2
    58   175   174    2
    59    51    48    1
    60    51    52    1
    61     8     6   ar
    62   179   177    1
    63   167   166    2
    64    48    47    1
    65   149   147   am
    66    47    43   am
    67   147   146    1
    68   176   177    1
    69   176   178    1
    70   176   173    1
    71    54    52   ar
    72    54    56   ar
    73    46    45    1
    74   172   173    1
    75    52    53   ar
    76   174   173    1
    77   164   165    1
    78     6     5    1
    79     6     7   ar
    80   166   165    1
    81    45    42    1
    82     5     2    1
    83    43    42    1
    84    43    44    2
    85    42    41    1
    86   108   107    1
    87    56    57   ar
    88   146   145    1
    89   165   168    1
    90    53    55   ar
    91    36    35    2
    92   140   139    2
    93     2     1    1
    94     2     3    1
    95   144   142   ar
    96   170   168    1
    97    57    55   ar
    98    57    58    1
    99   107   109    1
   100   107   106    1
   101    41    35   am
   102    35    34    1
   103   168   169    1
   104   142   143   ar
   105   142   141    1
   106   139   138    1
   107   141   138    1
   108    39    37    1
   109     3     4    2
   110   102   103    1
   111   106   103    1
   112    16    14   ar
   113   169   171    1
   114    34    33    1
   115    34    37    1
   116   138   137    1
   117    15    14   ar
   118   103   104    1
   119    14    13    1
   120   132   131    2
   121    37    38    1
   122    13    10    1
   123   136   134    1
   124    38    40    1
   125   134   133    1
   126    10     9    1
   127    10    11    1
   128   129   130    1
   129   104   105    2
   130   131   130    1
   131    26    25    1
   132    18    19    1
   133    18    17    1
   134   130   133    1
   135    25    22    1
   136    20    19    2
   137   133   135    1
   138    19    21   am
   139    11    12    2
   140   128   126   ar
   141   128   127   ar
   142    21    22    1
   143   126   124   ar
   144   127   125   ar
   145    22    23    1
   146   124   123   ar
   147   125   123   ar
   148   123   122    1
   149    23    24    2
   150    23    27   am
   151    27    28    1
   152   122   119    1
   153   116   115    1
   154    28    29    1
   155    28    31    1
   156   119   120    1
   157   119   118    1
   158    29    30    2
   159   117   115    1
   160   113   112    2
   161   115   114    1
   162   114   111    1
   163   120   121    2
   164    32    31    1
   165   112   111    1
   166   111   110    1
