@<TRIPOS>MOLECULE
tmp/1e5qG01.pdb
 142 136 0 0 0
SMALL
GASTEIGER

@<TRIPOS>ATOM
      1  N          6.9260  -32.1250    2.6420 N.3    77  TYR77      -0.1241
      2  CA         7.6310  -32.0770    1.3680 C.3    77  TYR77       0.1605
      3  C          8.5420  -30.8770    1.1530 C.2    77  TYR77       0.2264
      4  O          9.3500  -30.8720    0.2230 O.2    77  TYR77      -0.2867
      5  CB         6.6420  -32.2210    0.1980 C.3    77  TYR77       0.0534
      6  CG         5.6100  -31.1220    0.0630 C.ar   77  TYR77      -0.0201
      7  CD1        5.9580  -29.8640   -0.4320 C.ar   77  TYR77      -0.0009
      8  CD2        4.2750  -31.3520    0.3960 C.ar   77  TYR77      -0.0009
      9  CE1        5.0000  -28.8640   -0.5950 C.ar   77  TYR77       0.0417
     10  CE2        3.3150  -30.3650    0.2390 C.ar   77  TYR77       0.0417
     11  CZ         3.6830  -29.1220   -0.2610 C.ar   77  TYR77       0.1957
     12  OH         2.7310  -28.1410   -0.4450 O.3    77  TYR77      -0.2866
     13  N          6.8640  -40.1170   -1.0060 N.3    97  THR97      -0.1203
     14  CA         5.5340  -40.3530   -1.5460 C.3    97  THR97       0.1994
     15  C          5.0060  -39.0000   -2.0140 C.2    97  THR97       0.2619
     16  O          3.7980  -38.8020   -2.1650 O.2    97  THR97      -0.2717
     17  CB         4.5910  -40.9240   -0.4640 C.3    97  THR97       0.1784
     18  OG1        4.4910  -40.0020    0.6280 O.3    97  THR97      -0.2211
     19  CG2        5.1250  -42.2380    0.0630 C.3    97  THR97       0.0376
     20  N          5.9300  -38.0780   -2.2670 N.am   98  SER98      -0.1937
     21  CA         5.5730  -36.7230   -2.6770 C.3    98  SER98       0.2055
     22  C          5.7880  -36.4220   -4.1530 C.2    98  SER98       0.2643
     23  O          6.4690  -37.1550   -4.8700 O.2    98  SER98      -0.2714
     24  CB         6.3630  -35.7030   -1.8460 C.3    98  SER98       0.2130
     25  OG         6.1180  -35.8660   -0.4530 O.3    98  SER98      -0.2179
     26  N          5.1920  -35.3220   -4.5940 N.am   99  TYR99      -0.1973
     27  CA         5.3290  -34.8780   -5.9730 C.3    99  TYR99       0.1639
     28  C          6.7640  -34.4870   -6.2440 C.2    99  TYR99       0.2290
     29  O          7.4750  -34.0290   -5.3440 O.2    99  TYR99      -0.2864
     30  CB         4.4500  -33.6570   -6.2270 C.3    99  TYR99       0.0560
     31  CG         2.9950  -33.9820   -6.4480 C.ar   99  TYR99      -0.0198
     32  CD1        2.5760  -34.6030   -7.6220 C.ar   99  TYR99      -0.0009
     33  CD2        2.0350  -33.6770   -5.4800 C.ar   99  TYR99      -0.0009
     34  CE1        1.2330  -34.9170   -7.8300 C.ar   99  TYR99       0.0417
     35  CE2        0.6890  -33.9870   -5.6780 C.ar   99  TYR99       0.0417
     36  CZ         0.2960  -34.6100   -6.8560 C.ar   99  TYR99       0.1957
     37  OH        -1.0240  -34.9490   -7.0520 O.3    99  TYR99      -0.2866
     38  N         -0.4000  -42.9430   -2.5160 N.3   124  LEU124     -0.1231
     39  CA        -1.7320  -43.2120   -3.0640 C.3   124  LEU124      0.1693
     40  C         -2.0450  -42.2430   -4.2030 C.2   124  LEU124      0.2592
     41  O         -2.3940  -42.6460   -5.3130 O.2   124  LEU124     -0.2718
     42  CB        -2.7910  -43.0420   -1.9710 C.3   124  LEU124      0.0284
     43  CG        -4.2390  -42.8090   -2.4300 C.3   124  LEU124      0.0019
     44  CD1       -4.7930  -44.0910   -3.0630 C.3   124  LEU124      0.0001
     45  CD2       -5.1000  -42.4010   -1.2340 C.3   124  LEU124      0.0001
     46  N         -1.9150  -40.9560   -3.8990 N.am  125  ASP125     -0.1960
     47  CA        -2.1860  -39.8810   -4.8460 C.3   125  ASP125      0.1825
     48  C         -1.2920  -38.7180   -4.4320 C.2   125  ASP125      0.2464
     49  O         -1.6460  -37.9350   -3.5450 O.2   125  ASP125     -0.2730
     50  CB        -3.6700  -39.4790   -4.7630 C.3   125  ASP125      0.1450
     51  CG        -3.9830  -38.1780   -5.5050 C.2   125  ASP125      0.3671
     52  OD1       -3.1010  -37.6490   -6.2200 O.co2 125  ASP125     -0.2456
     53  OD2       -5.1240  -37.6880   -5.3690 O.co2 125  ASP125     -0.2456
     54  N         -0.1310  -38.5720   -5.0850 N.am  126  PRO126     -0.2727
     55  CA         0.4200  -39.3850   -6.1770 C.3   126  PRO126      0.1402
     56  C          0.9450  -40.7700   -5.7970 C.2   126  PRO126      0.2269
     57  O          1.5320  -40.9560   -4.7320 O.2   126  PRO126     -0.2865
     58  CB         1.5270  -38.4970   -6.7170 C.3   126  PRO126      0.0296
     59  CG         2.0800  -37.9060   -5.4610 C.3   126  PRO126      0.0237
     60  CD         0.8290  -37.5320   -4.6790 C.3   126  PRO126      0.0939
     61  N         -9.6180  -38.5080   -6.4620 N.3   154  CYS154     -0.1221
     62  CA        -9.3090  -39.2390   -5.2470 C.3   154  CYS154      0.1808
     63  C         -9.5670  -38.4180   -4.0080 C.2   154  CYS154      0.2602
     64  O         -9.3550  -37.2010   -3.9840 O.2   154  CYS154     -0.2717
     65  CB        -7.8480  -39.6770   -5.2680 C.3   154  CYS154      0.0970
     66  SG        -7.3080  -40.5570   -3.7970 S.3   154  CYS154     -0.0800
     67  N        -10.0420  -39.0960   -2.9740 N.am  155  GLY155     -0.1942
     68  CA       -10.3030  -38.4210   -1.7230 C.3   155  GLY155      0.2014
     69  C        -10.0650  -39.3380   -0.5400 C.2   155  GLY155      0.2639
     70  O        -10.4670  -40.5040   -0.5620 O.2   155  GLY155     -0.2714
     71  N         -9.3780  -38.8130    0.4720 N.am  156  GLY156     -0.1954
     72  CA        -9.1250  -39.5520    1.6970 C.3   156  GLY156      0.1869
     73  C        -10.0690  -38.8800    2.6740 C.2   156  GLY156      0.2309
     74  O         -9.8300  -37.7560    3.1230 O.2   156  GLY156     -0.2863
     75  N         -4.0000  -37.9600    7.4210 N.3   173  TRP173     -0.1241
     76  CA        -2.6520  -37.6250    6.9530 C.3   173  TRP173      0.1605
     77  C         -2.3690  -36.1470    7.2350 C.2   173  TRP173      0.2264
     78  O         -3.2960  -35.3740    7.4810 O.2   173  TRP173     -0.2867
     79  CB        -2.4740  -37.9350    5.4520 C.3   173  TRP173      0.0550
     80  CG        -3.3490  -37.1420    4.5100 C.ar  173  TRP173      0.0003
     81  CD1       -4.6710  -37.3600    4.2330 C.ar  173  TRP173      0.0946
     82  CD2       -2.9620  -35.9940    3.7360 C.ar  173  TRP173      0.0152
     83  NE1       -5.1310  -36.4180    3.3380 N.ar  173  TRP173     -0.2442
     84  CE2       -4.1020  -35.5690    3.0180 C.ar  173  TRP173      0.0810
     85  CE3       -1.7610  -35.2840    3.5800 C.ar  173  TRP173      0.0012
     86  CZ2       -4.0790  -34.4600    2.1550 C.ar  173  TRP173      0.0191
     87  CZ3       -1.7380  -34.1750    2.7170 C.ar  173  TRP173      0.0001
     88  CH2       -2.8910  -33.7790    2.0200 C.ar  173  TRP173      0.0015
     89  N         -0.6130  -30.3210    5.7290 N.3   177  GLY177     -0.1225
     90  CA        -0.5430  -30.7150    4.3330 C.3   177  GLY177      0.1811
     91  C         -1.9330  -30.6040    3.7260 C.2   177  GLY177      0.2280
     92  O         -2.0940  -30.2310    2.5590 O.2   177  GLY177     -0.2866
     93  N         -2.9180  -28.0030    0.5690 N.3   181  ALA181     -0.1245
     94  CA        -3.5390  -28.5000   -0.6560 C.3   181  ALA181      0.1562
     95  C         -4.8030  -27.7300   -1.0240 C.2   181  ALA181      0.2260
     96  O         -5.2110  -27.7130   -2.1820 O.2   181  ALA181     -0.2867
     97  CB        -3.8560  -29.9890   -0.5160 C.3   181  ALA181      0.0290
     98  N         -7.2060  -30.7230   -8.9270 N.3   222  ASN222     -0.1225
     99  CA        -6.0590  -30.8820   -8.0450 C.3   222  ASN222      0.1785
    100  C         -4.7610  -30.5340   -8.7670 C.2   222  ASN222      0.2597
    101  O         -4.2540  -31.3230   -9.5530 O.2   222  ASN222     -0.2718
    102  CB        -6.0130  -32.3270   -7.5180 C.3   222  ASN222      0.1169
    103  CG        -4.7460  -32.6300   -6.7280 C.2   222  ASN222      0.2627
    104  OD1       -4.1030  -31.7260   -6.1870 O.2   222  ASN222     -0.2716
    105  ND2       -4.3930  -33.9150   -6.6430 N.am  222  ASN222     -0.0877
    106  N         -4.2390  -29.3400   -8.5040 N.am  223  ARG223     -0.1979
    107  CA        -2.9900  -28.8870   -9.1060 C.3   223  ARG223      0.1597
    108  C         -3.0410  -28.8140  -10.6390 C.2   223  ARG223      0.2287
    109  O         -4.1160  -28.8170  -11.2500 O.2   223  ARG223     -0.2864
    110  CB        -1.8350  -29.7960   -8.6430 C.3   223  ARG223      0.0334
    111  CG        -1.6160  -29.7930   -7.1180 C.3   223  ARG223      0.0492
    112  CD        -0.4770  -30.7330   -6.6970 C.3   223  ARG223      0.2205
    113  NE        -0.1510  -30.6580   -5.2690 N.pl3 223  ARG223     -0.0865
    114  CZ        -0.8500  -31.2370   -4.2930 C.cat 223  ARG223      0.5346
    115  NH1       -0.4690  -31.1040   -3.0300 N.pl3 223  ARG223      0.1354
    116  NH2       -1.9250  -31.9610   -4.5700 N.pl3 223  ARG223      0.1354
    117  N         -9.6720  -33.8510   -6.6920 N.3   244  THR244     -0.1218
    118  CA        -9.8460  -34.2460   -5.3070 C.3   244  THR244      0.1862
    119  C        -11.3080  -34.2990   -4.9230 C.2   244  THR244      0.2287
    120  O        -12.0910  -33.4370   -5.3080 O.2   244  THR244     -0.2866
    121  CB        -9.1360  -33.2480   -4.3810 C.3   244  THR244      0.1770
    122  OG1       -7.7280  -33.2950   -4.6330 O.3   244  THR244     -0.2211
    123  CG2       -9.4180  -33.5720   -2.9100 C.3   244  THR244      0.0375
    124  N        -14.2590  -34.5390   -1.8580 N.3   246  ARG246     -0.1245
    125  CA       -14.5850  -34.1710   -0.4890 C.3   246  ARG246      0.1563
    126  C        -16.0760  -34.4630   -0.4070 C.2   246  ARG246      0.2260
    127  O        -16.6760  -34.8520   -1.4120 O.2   246  ARG246     -0.2867
    128  CB       -14.3150  -32.6850   -0.2330 C.3   246  ARG246      0.0307
    129  CG       -12.8350  -32.3190   -0.2190 C.3   246  ARG246      0.0489
    130  CD       -12.1590  -32.7740    1.0750 C.3   246  ARG246      0.2205
    131  NE       -10.7190  -32.5240    1.0750 N.pl3 246  ARG246     -0.0865
    132  CZ        -9.8090  -33.3950    0.6470 C.cat 246  ARG246      0.5346
    133  NH1       -8.5170  -33.0850    0.6790 N.pl3 246  ARG246      0.1354
    134  NH2      -10.1870  -34.5890    0.2050 N.pl3 246  ARG246      0.1354
    135  N         -5.9040  -44.7060    4.3720 N.3   394  MET394     -0.1245
    136  CA        -4.8890  -43.7640    3.9130 C.3   394  MET394      0.1570
    137  C         -3.4750  -44.2470    4.2450 C.2   394  MET394      0.2261
    138  O         -2.6050  -44.2810    3.3710 O.2   394  MET394     -0.2867
    139  CB        -5.1370  -42.3890    4.5410 C.3   394  MET394      0.0387
    140  CG        -4.1380  -41.3130    4.1200 C.3   394  MET394      0.0595
    141  SD        -4.1260  -41.0200    2.3300 S.3   394  MET394     -0.1393
    142  CE        -5.8010  -40.3320    2.0960 C.3   394  MET394      0.0692
@<TRIPOS>BOND
     1   109   108    2
     2   108   107    1
     3   101   100    2
     4   107   110    1
     5   107   106    1
     6    98    99    1
     7   100   106   am
     8   100    99    1
     9   110   111    1
    10    99   102    1
    11    34    32   ar
    12    34    36   ar
    13    32    31   ar
    14   102   103    1
    15   111   112    1
    16    37    36    1
    17    36    35   ar
    18   103   105   am
    19   103   104    2
    20    58    55    1
    21    58    59    1
    22   112   113    1
    23   117   118    1
    24    61    62    1
    25    31    30    1
    26    31    33   ar
    27    28    27    1
    28    28    29    2
    29    30    27    1
    30    52    51   ar
    31    55    56    1
    32    55    54    1
    33    27    26    1
    34    56    57    2
    35    35    33   ar
    36    51    53   ar
    37    51    50    1
    38    59    60    1
    39    41    40    2
    40   120   119    2
    41   118   119    1
    42   118   121    1
    43   113   114    2
    44    65    62    1
    45    65    66    1
    46    62    63    1
    47    54    60    1
    48    54    48   am
    49    23    22    2
    50    47    50    1
    51    47    48    1
    52    47    46    1
    53   122   121    1
    54    26    22   am
    55   116   114    1
    56    48    49    2
    57   121   123    1
    58   114   115    1
    59    40    46   am
    60    40    39    1
    61    22    21    1
    62    63    64    2
    63    63    67   am
    64    39    38    1
    65    39    42    1
    66    44    43    1
    67    67    68    1
    68    21    20    1
    69    21    24    1
    70    43    42    1
    71    43    45    1
    72    20    15   am
    73    96    95    2
    74    16    15    2
    75    15    14    1
    76   124   125    1
    77    24    25    1
    78    68    69    1
    79    14    13    1
    80    14    17    1
    81   127   126    2
    82    95    94    1
    83    94    97    1
    84    94    93    1
    85     9     7   ar
    86     9    11   ar
    87    70    69    2
    88    69    71   am
    89   125   126    1
    90   125   128    1
    91    17    19    1
    92    17    18    1
    93    12    11    1
    94     7     6   ar
    95    11    10   ar
    96   128   129    1
    97   129   130    1
    98     6     5    1
    99     6     8   ar
   100     5     2    1
   101   134   132    1
   102     4     3    2
   103    10     8   ar
   104    71    72    1
   105   132   133    1
   106   132   131    2
   107   131   130    1
   108     3     2    1
   109     2     1    1
   110    72    73    1
   111    88    86   ar
   112    88    87   ar
   113   142   141    1
   114    86    84   ar
   115   141   140    1
   116    92    91    2
   117    73    74    2
   118    87    85   ar
   119    84    83   ar
   120    84    82   ar
   121    83    81   ar
   122   138   137    2
   123    85    82   ar
   124    91    90    1
   125    82    80   ar
   126   136   137    1
   127   136   135    1
   128   136   139    1
   129   140   139    1
   130    81    80   ar
   131    90    89    1
   132    80    79    1
   133    79    76    1
   134    76    77    1
   135    76    75    1
   136    77    78    2
