@<TRIPOS>MOLECULE
tmp/1e66A00.pdb
 197 196 0 0 0
SMALL
GASTEIGER

@<TRIPOS>ATOM
      1  N         -4.1710   68.7560   70.2480 N.3    69  ASP69      -0.1239
      2  CA        -3.1500   68.8920   71.2890 C.3    69  ASP69       0.1674
      3  C         -3.5470   69.9160   72.3710 C.2    69  ASP69       0.2266
      4  O         -3.6850   71.0960   72.0890 O.2    69  ASP69      -0.2867
      5  CB        -1.8120   69.2780   70.6320 C.3    69  ASP69       0.1410
      6  CG        -0.6740   69.4830   71.6410 C.2    69  ASP69       0.3668
      7  OD1       -0.8680   69.2330   72.8440 O.co2  69  ASP69      -0.2456
      8  OD2        0.4320   69.8950   71.2350 O.co2  69  ASP69      -0.2456
      9  N          2.4640   75.0630   70.5890 N.3    78  SER78      -0.1217
     10  CA         1.7110   73.8720   70.2760 C.3    78  SER78       0.1889
     11  C          0.3800   74.1370   69.5720 C.2    78  SER78       0.2288
     12  O         -0.0380   73.3470   68.6940 O.2    78  SER78      -0.2866
     13  CB         1.4560   73.0770   71.5540 C.3    78  SER78       0.2089
     14  OG         0.7630   73.8560   72.4920 O.3    78  SER78      -0.2183
     15  N         -0.3680   74.3900   65.6080 N.3    81  TRP81      -0.1241
     16  CA        -0.4550   73.1740   64.8260 C.3    81  TRP81       0.1605
     17  C         -1.8600   72.5900   64.8580 C.2    81  TRP81       0.2264
     18  O         -2.1930   71.7480   64.0120 O.2    81  TRP81      -0.2867
     19  CB         0.5410   72.1250   65.3530 C.3    81  TRP81       0.0550
     20  CG         1.9850   72.5570   65.3000 C.ar   81  TRP81       0.0003
     21  CD1        2.7570   72.9960   66.3480 C.ar   81  TRP81       0.0946
     22  CD2        2.8370   72.5700   64.1370 C.ar   81  TRP81       0.0152
     23  NE1        4.0410   73.2730   65.9030 N.ar   81  TRP81      -0.2442
     24  CE2        4.1150   73.0160   64.5550 C.ar   81  TRP81       0.0810
     25  CE3        2.6410   72.2460   62.7870 C.ar   81  TRP81       0.0012
     26  CZ2        5.2000   73.1480   63.6670 C.ar   81  TRP81       0.0191
     27  CZ3        3.7300   72.3820   61.8900 C.ar   81  TRP81       0.0001
     28  CH2        4.9920   72.8290   62.3470 C.ar   81  TRP81       0.0015
     29  N          1.9710   67.2560   57.1720 N.3   114  GLY114     -0.1210
     30  CA         2.3740   66.1460   58.0180 C.3   114  GLY114      0.1956
     31  C          1.5290   66.1230   59.2820 C.2   114  GLY114      0.2612
     32  O          0.5630   66.8910   59.4180 O.2   114  GLY114     -0.2717
     33  N          1.9010   65.2390   60.2030 N.am  115  GLY115     -0.1942
     34  CA         1.1640   65.0900   61.4290 C.3   115  GLY115      0.2014
     35  C          1.0390   63.6180   61.8010 C.2   115  GLY115      0.2639
     36  O         -0.0140   63.2180   62.2930 O.2   115  GLY115     -0.2714
     37  N          2.0830   62.8170   61.5520 N.am  116  GLY116     -0.1954
     38  CA         2.0520   61.3930   61.9050 C.3   116  GLY116      0.1869
     39  C          0.8510   60.5750   61.4250 C.2   116  GLY116      0.2309
     40  O          0.5320   59.5080   61.9740 O.2   116  GLY116     -0.2863
     41  N         -2.0230   61.1180   61.9300 N.3   118  TYR118     -0.1227
     42  CA        -3.1150   61.2240   62.8970 C.3   118  TYR118      0.1736
     43  C         -3.6520   62.6600   63.0500 C.2   118  TYR118      0.2596
     44  O         -4.6900   62.8820   63.7050 O.2   118  TYR118     -0.2718
     45  CB        -2.6810   60.6840   64.2730 C.3   118  TYR118      0.0548
     46  CG        -1.7400   61.5760   65.0570 C.ar  118  TYR118     -0.0200
     47  CD1       -2.2350   62.6010   65.8800 C.ar  118  TYR118     -0.0009
     48  CD2       -0.3490   61.4160   64.9590 C.ar  118  TYR118     -0.0009
     49  CE1       -1.3650   63.4540   66.5870 C.ar  118  TYR118      0.0417
     50  CE2        0.5330   62.2500   65.6520 C.ar  118  TYR118      0.0417
     51  CZ         0.0220   63.2730   66.4700 C.ar  118  TYR118      0.1957
     52  OH         0.8890   64.1100   67.1680 O.3   118  TYR118     -0.2866
     53  N         -2.9490   63.6340   62.4700 N.am  119  SER119     -0.1952
     54  CA        -3.3890   65.0190   62.5620 C.3   119  SER119      0.1924
     55  C         -2.8670   65.8150   61.3780 C.2   119  SER119      0.2314
     56  O         -2.1260   65.2820   60.5330 O.2   119  SER119     -0.2863
     57  CB        -2.8800   65.6510   63.8590 C.3   119  SER119      0.2116
     58  OG        -1.4610   65.7610   63.8340 O.3   119  SER119     -0.2180
     59  N          1.3850   77.3290   56.8920 N.3   127  TYR127     -0.1241
     60  CA         1.2740   76.7360   55.5490 C.3   127  TYR127      0.1605
     61  C          0.6830   77.7290   54.5280 C.2   127  TYR127      0.2264
     62  O          0.3290   77.3320   53.4050 O.2   127  TYR127     -0.2867
     63  CB         0.3950   75.4710   55.5430 C.3   127  TYR127      0.0534
     64  CG         0.8520   74.3320   56.4230 C.ar  127  TYR127     -0.0201
     65  CD1        2.1980   74.1700   56.7640 C.ar  127  TYR127     -0.0009
     66  CD2       -0.0730   73.4090   56.9210 C.ar  127  TYR127     -0.0009
     67  CE1        2.6060   73.1160   57.5900 C.ar  127  TYR127      0.0417
     68  CE2        0.3170   72.3600   57.7340 C.ar  127  TYR127      0.0417
     69  CZ         1.6550   72.2120   58.0750 C.ar  127  TYR127      0.1957
     70  OH         2.0350   71.1810   58.9250 O.3   127  TYR127     -0.2866
     71  N          6.0880   67.5220   54.6810 N.3   196  GLU196     -0.1231
     72  CA         6.9400   67.3250   55.8600 C.3   196  GLU196      0.1699
     73  C          6.3850   66.2260   56.7640 C.2   196  GLU196      0.2592
     74  O          5.1820   66.0240   56.8170 O.2   196  GLU196     -0.2718
     75  CB         7.0460   68.6490   56.6410 C.3   196  GLU196      0.0402
     76  CG         8.0040   68.6380   57.8370 C.3   196  GLU196      0.1161
     77  CD         7.3130   68.2900   59.1460 C.2   196  GLU196      0.3649
     78  OE1        6.0610   68.3010   59.1810 O.co2 196  GLU196     -0.2457
     79  OE2        8.0160   68.0130   60.1480 O.co2 196  GLU196     -0.2457
     80  N          7.2590   65.5180   57.4730 N.am  197  SER197     -0.1952
     81  CA         6.8350   64.4340   58.3830 C.3   197  SER197      0.1924
     82  C          6.0390   63.3850   57.5730 C.2   197  SER197      0.2314
     83  O          6.5100   62.9260   56.5350 O.2   197  SER197     -0.2863
     84  CB         5.9760   65.0180   59.5330 C.3   197  SER197      0.2116
     85  OG         5.9130   64.1280   60.6430 O.3   197  SER197     -0.2180
     86  N          6.7630   58.1620   69.2890 N.3   285  PHE285     -0.1241
     87  CA         6.9450   58.1980   67.8440 C.3   285  PHE285      0.1605
     88  C          6.2980   56.9870   67.1300 C.2   285  PHE285      0.2264
     89  O          6.8600   56.4200   66.1810 O.2   285  PHE285     -0.2867
     90  CB         8.4360   58.3300   67.4830 C.3   285  PHE285      0.0534
     91  CG         8.6950   59.2610   66.2950 C.ar  285  PHE285     -0.0203
     92  CD1        7.8640   59.2210   65.1570 C.ar  285  PHE285     -0.0042
     93  CD2        9.7680   60.1580   66.3050 C.ar  285  PHE285     -0.0042
     94  CE1        8.0960   60.0560   64.0490 C.ar  285  PHE285     -0.0003
     95  CE2       10.0110   60.9950   65.2030 C.ar  285  PHE285     -0.0003
     96  CZ         9.1650   60.9420   64.0650 C.ar  285  PHE285     -0.0000
     97  N          2.2240   55.7970   65.8570 N.3   287  PHE287     -0.1241
     98  CA         0.8620   56.2760   65.6630 C.3   287  PHE287      0.1605
     99  C         -0.0360   55.1030   65.2690 C.2   287  PHE287      0.2264
    100  O          0.3780   54.1830   64.5600 O.2   287  PHE287     -0.2867
    101  CB         0.8960   57.3860   64.5950 C.3   287  PHE287      0.0534
    102  CG         2.0730   58.3250   64.7580 C.ar  287  PHE287     -0.0203
    103  CD1        2.1880   59.1290   65.8970 C.ar  287  PHE287     -0.0042
    104  CD2        3.0990   58.3650   63.8030 C.ar  287  PHE287     -0.0042
    105  CE1        3.3040   59.9590   66.0800 C.ar  287  PHE287     -0.0003
    106  CE2        4.2180   59.1890   63.9700 C.ar  287  PHE287     -0.0003
    107  CZ         4.3240   59.9870   65.1050 C.ar  287  PHE287     -0.0000
    108  N         10.8820   66.9930   70.2620 N.3   327  PHE327     -0.1227
    109  CA         9.4210   67.1160   70.3620 C.3   327  PHE327      0.1736
    110  C          8.7780   65.8800   71.0370 C.2   327  PHE327      0.2595
    111  O          8.0150   66.0050   72.0090 O.2   327  PHE327     -0.2718
    112  CB         8.8850   67.3440   68.9320 C.3   327  PHE327      0.0547
    113  CG         7.4070   67.0450   68.7290 C.ar  327  PHE327     -0.0202
    114  CD1        6.4590   67.3210   69.7130 C.ar  327  PHE327     -0.0042
    115  CD2        6.9680   66.5600   67.4880 C.ar  327  PHE327     -0.0042
    116  CE1        5.0870   67.1280   69.4680 C.ar  327  PHE327     -0.0003
    117  CE2        5.6050   66.3580   67.2200 C.ar  327  PHE327     -0.0003
    118  CZ         4.6510   66.6410   68.2030 C.ar  327  PHE327     -0.0000
    119  N          9.1070   64.6890   70.5360 N.am  328  PHE328     -0.1976
    120  CA         8.5470   63.4550   71.0610 C.3   328  PHE328      0.1639
    121  C          8.9370   63.1390   72.4910 C.2   328  PHE328      0.2290
    122  O          8.1240   62.6110   73.2630 O.2   328  PHE328     -0.2864
    123  CB         8.9130   62.3120   70.1180 C.3   328  PHE328      0.0560
    124  CG         8.5160   62.5890   68.6880 C.ar  328  PHE328     -0.0200
    125  CD1        9.3490   63.3420   67.8540 C.ar  328  PHE328     -0.0042
    126  CD2        7.2660   62.1830   68.2110 C.ar  328  PHE328     -0.0042
    127  CE1        8.9460   63.6980   66.5480 C.ar  328  PHE328     -0.0003
    128  CE2        6.8420   62.5260   66.9140 C.ar  328  PHE328     -0.0003
    129  CZ         7.6890   63.2910   66.0740 C.ar  328  PHE328     -0.0000
    130  N          6.9820   65.3790   74.9500 N.3   331  TYR331     -0.1241
    131  CA         5.6190   64.9090   75.1240 C.3   331  TYR331      0.1605
    132  C          5.4540   63.5330   75.7110 C.2   331  TYR331      0.2264
    133  O          4.4200   63.2670   76.2950 O.2   331  TYR331     -0.2867
    134  CB         4.8460   64.9620   73.8080 C.3   331  TYR331      0.0534
    135  CG         4.3010   66.3400   73.4760 C.ar  331  TYR331     -0.0201
    136  CD1        5.1630   67.4120   73.1940 C.ar  331  TYR331     -0.0009
    137  CD2        2.9270   66.5690   73.4020 C.ar  331  TYR331     -0.0009
    138  CE1        4.6700   68.6680   72.8370 C.ar  331  TYR331      0.0417
    139  CE2        2.4140   67.8430   73.0430 C.ar  331  TYR331      0.0417
    140  CZ         3.2930   68.8820   72.7570 C.ar  331  TYR331      0.1957
    141  OH         2.8050   70.1070   72.3360 O.3   331  TYR331     -0.2866
    142  N          9.9080   77.6770   72.1780 N.3   429  TRP429     -0.1241
    143  CA        10.2310   76.4200   72.8690 C.3   429  TRP429      0.1605
    144  C         11.5980   76.5460   73.5740 C.2   429  TRP429      0.2264
    145  O         12.4690   77.2810   73.1200 O.2   429  TRP429     -0.2867
    146  CB        10.2450   75.2450   71.8550 C.3   429  TRP429      0.0550
    147  CG         8.8820   74.8850   71.2680 C.ar  429  TRP429      0.0003
    148  CD1        8.4120   75.1950   70.0210 C.ar  429  TRP429      0.0946
    149  CD2        7.8150   74.1790   71.9300 C.ar  429  TRP429      0.0152
    150  NE1        7.1230   74.7290   69.8660 N.ar  429  TRP429     -0.2442
    151  CE2        6.7320   74.1050   71.0200 C.ar  429  TRP429      0.0810
    152  CE3        7.6720   73.6060   73.1990 C.ar  429  TRP429      0.0012
    153  CZ2        5.5130   73.4800   71.3410 C.ar  429  TRP429      0.0191
    154  CZ3        6.4600   72.9800   73.5240 C.ar  429  TRP429      0.0001
    155  CH2        5.3930   72.9230   72.5880 C.ar  429  TRP429      0.0015
    156  N         15.5550   71.8270   73.2730 N.3   433  MET433     -0.1245
    157  CA        14.9310   71.1350   72.1460 C.3   433  MET433      0.1570
    158  C         15.6510   71.3690   70.8090 C.2   433  MET433      0.2261
    159  O         15.4720   70.5870   69.8580 O.2   433  MET433     -0.2867
    160  CB        13.4510   71.5310   72.0640 C.3   433  MET433      0.0387
    161  CG        12.6690   71.0360   73.2820 C.3   433  MET433      0.0595
    162  SD        10.9240   71.5010   73.3410 S.3   433  MET433     -0.1393
    163  CE        10.2660   70.3500   72.0760 C.3   433  MET433      0.0692
    164  N         13.8310   71.8970   66.1170 N.3   436  ILE436     -0.1231
    165  CA        12.6750   71.0050   66.1860 C.3   436  ILE436      0.1692
    166  C         11.9840   70.4690   64.9340 C.2   436  ILE436      0.2592
    167  O         11.9320   71.1110   63.8830 O.2   436  ILE436     -0.2718
    168  CB        11.6410   71.6800   67.0810 C.3   436  ILE436      0.0266
    169  CG1       12.3290   72.0410   68.4210 C.3   436  ILE436      0.0019
    170  CG2       10.4110   70.7970   67.2880 C.3   436  ILE436      0.0020
    171  CD1       11.5540   73.0260   69.2990 C.3   436  ILE436      0.0001
    172  N         11.4590   69.2560   65.0800 N.am  437  HIS437     -0.1962
    173  CA        10.7090   68.5750   64.0350 C.3   437  HIS437      0.1787
    174  C          9.5780   69.5300   63.6500 C.2   437  HIS437      0.2621
    175  O          8.7420   69.8680   64.4880 O.2   437  HIS437     -0.2715
    176  CB        10.1220   67.2780   64.6010 C.3   437  HIS437      0.0785
    177  CG         9.4660   66.3940   63.5800 C.ar  437  HIS437      0.0821
    178  ND1       10.1580   65.8330   62.5240 N.ar  437  HIS437     -0.2267
    179  CD2        8.1930   65.9270   63.4910 C.ar  437  HIS437      0.1154
    180  CE1        9.3420   65.0520   61.8370 C.ar  437  HIS437      0.1986
    181  NE2        8.1440   65.0910   62.4020 N.ar  437  HIS437     -0.2212
    182  N          9.5820   69.9710   62.3910 N.am  438  GLY438     -0.1940
    183  CA         8.5550   70.8710   61.8800 C.3   438  GLY438      0.2014
    184  C          8.9310   72.3450   61.7630 C.2   438  GLY438      0.2638
    185  O          8.2150   73.1210   61.1100 O.2   438  GLY438     -0.2714
    186  N         10.0670   72.7350   62.3470 N.am  439  TYR439     -0.1973
    187  CA        10.4500   74.1440   62.3370 C.3   439  TYR439      0.1639
    188  C         11.2780   74.6930   61.1800 C.2   439  TYR439      0.2290
    189  O         11.7590   75.8380   61.2350 O.2   439  TYR439     -0.2864
    190  CB        11.0490   74.5260   63.7030 C.3   439  TYR439      0.0560
    191  CG         9.9430   74.7240   64.7120 C.ar  439  TYR439     -0.0198
    192  CD1        9.3400   73.6310   65.3450 C.ar  439  TYR439     -0.0009
    193  CD2        9.3750   75.9900   64.9000 C.ar  439  TYR439     -0.0009
    194  CE1        8.1710   73.7870   66.1370 C.ar  439  TYR439      0.0417
    195  CE2        8.2120   76.1640   65.6790 C.ar  439  TYR439      0.0417
    196  CZ         7.6120   75.0650   66.2880 C.ar  439  TYR439      0.1957
    197  OH         6.4290   75.2550   66.9880 O.3   439  TYR439     -0.2866
@<TRIPOS>BOND
     1    62    61    2
     2    61    60    1
     3    71    72    1
     4    63    60    1
     5    63    64    1
     6    60    59    1
     7    72    75    1
     8    72    73    1
     9    64    65   ar
    10    64    66   ar
    11    83    82    2
    12    75    76    1
    13    73    74    2
    14    73    80   am
    15    65    67   ar
    16    66    68   ar
    17    29    30    1
    18    80    81    1
    19    82    81    1
    20    67    69   ar
    21    68    69   ar
    22    76    77    1
    23    30    31    1
    24    69    70    1
    25    81    84    1
    26    77    78   ar
    27    77    79   ar
    28    31    32    2
    29    31    33   am
    30    84    85    1
    31    33    34    1
    32    56    55    2
    33   185   184    2
    34   188   189    2
    35   188   187    1
    36    55    54    1
    37    39    38    1
    38    39    40    2
    39    34    35    1
    40    37    35   am
    41    37    38    1
    42   184   183    1
    43   184   186   am
    44    35    36    2
    45   180   181   ar
    46   180   178   ar
    47   183   182    1
    48    27    28   ar
    49    27    25   ar
    50    41    42    1
    51   187   186    1
    52   187   190    1
    53    28    26   ar
    54   182   174   am
    55   181   179   ar
    56    53    54    1
    57    53    43   am
    58   178   177   ar
    59    54    57    1
    60    25    22   ar
    61    42    43    1
    62    42    45    1
    63    43    44    2
    64   179   177   ar
    65   177   176    1
    66   174   173    1
    67   174   175    2
    68    26    24   ar
    69   190   191    1
    70   104   106   ar
    71   104   102   ar
    72    58    57    1
    73   167   166    2
    74   106   107   ar
    75    18    17    2
    76   173   176    1
    77   173   172    1
    78    94    96   ar
    79    94    92   ar
    80    96    95   ar
    81    22    24   ar
    82    22    20   ar
    83    45    46    1
    84    24    23   ar
    85   100    99    2
    86   101   102    1
    87   101    98    1
    88   191   193   ar
    89   191   192   ar
    90   102   103   ar
    91    16    17    1
    92    16    19    1
    93    16    15    1
    94   193   195   ar
    95   166   172   am
    96   166   165    1
    97    48    46   ar
    98    48    50   ar
    99    46    47   ar
   100   107   105   ar
   101    92    91   ar
   102    95    93   ar
   103    99    98    1
   104    20    19    1
   105    20    21   ar
   106   192   194   ar
   107    50    51   ar
   108    98    97    1
   109   195   196   ar
   110    47    49   ar
   111   103   105   ar
   112    23    21   ar
   113   129   127   ar
   114   129   128   ar
   115   164   165    1
   116   194   196   ar
   117    89    88    2
   118   165   168    1
   119   196   197    1
   120    91    93   ar
   121    91    90    1
   122    51    49   ar
   123    51    52    1
   124   127   125   ar
   125   128   126   ar
   126   168   170    1
   127   168   169    1
   128    88    87    1
   129   117   115   ar
   130   117   118   ar
   131    90    87    1
   132   115   113   ar
   133    87    86    1
   134   125   124   ar
   135   118   116   ar
   136   126   124   ar
   137   169   171    1
   138   124   123    1
   139    12    11    2
   140   113   112    1
   141   113   114   ar
   142   112   109    1
   143   116   114   ar
   144    11    10    1
   145   159   158    2
   146   150   148   ar
   147   150   151   ar
   148   148   147   ar
   149   123   120    1
   150     1     2    1
   151   108   109    1
   152    10     9    1
   153    10    13    1
   154   109   110    1
   155   119   110   am
   156   119   120    1
   157     5     2    1
   158     5     6    1
   159   158   157    1
   160   151   153   ar
   161   151   149   ar
   162   110   111    2
   163   120   121    1
   164     8     6   ar
   165   147   146    1
   166   147   149   ar
   167     2     3    1
   168   153   155   ar
   169    13    14    1
   170     6     7   ar
   171   146   143    1
   172   149   152   ar
   173   160   157    1
   174   160   161    1
   175   163   162    1
   176     4     3    2
   177   157   156    1
   178   142   143    1
   179   141   140    1
   180   121   122    2
   181   155   154   ar
   182   140   138   ar
   183   140   139   ar
   184   138   136   ar
   185   143   144    1
   186   139   137   ar
   187   145   144    2
   188   136   135   ar
   189   152   154   ar
   190   161   162    1
   191   137   135   ar
   192   135   134    1
   193   134   131    1
   194   130   131    1
   195   131   132    1
   196   132   133    2
