@<TRIPOS>MOLECULE
tmp/1e6aB00.pdb
 132 122 0 0 0
SMALL
GASTEIGER

@<TRIPOS>ATOM
      1  N         53.1310  -53.7620  -52.8360 N.3    48  GLU48      -0.1245
      2  CA        52.6900  -54.2660  -51.5480 C.3    48  GLU48       0.1567
      3  C         52.3850  -53.1010  -50.6180 C.2    48  GLU48       0.2260
      4  O         51.3160  -53.0450  -50.0160 O.2    48  GLU48      -0.2867
      5  CB        53.7810  -55.1390  -50.9250 C.3    48  GLU48       0.0388
      6  CG        54.0830  -56.3890  -51.7250 C.3    48  GLU48       0.1160
      7  CD        55.3930  -57.0250  -51.3260 C.2    48  GLU48       0.3649
      8  OE1       56.3640  -56.2710  -51.1380 O.co2  48  GLU48      -0.2457
      9  OE2       55.4610  -58.2680  -51.2120 O.co2  48  GLU48      -0.2457
     10  N         53.2590  -53.3180  -42.8060 N.3    56  LYS56      -0.1245
     11  CA        54.2150  -54.1100  -43.5660 C.3    56  LYS56       0.1561
     12  C         53.5190  -55.2670  -44.2660 C.2    56  LYS56       0.2260
     13  O         53.5340  -56.4090  -43.7880 O.2    56  LYS56      -0.2867
     14  CB        55.3240  -54.6340  -42.6520 C.3    56  LYS56       0.0271
     15  CG        56.7090  -54.5910  -43.2850 C.3    56  LYS56       0.0035
     16  CD        56.8200  -55.4640  -44.5400 C.3    56  LYS56       0.0206
     17  CE        58.1740  -55.2530  -45.2210 C.3    56  LYS56       0.1093
     18  NZ        58.3180  -56.0510  -46.4660 N.3    56  LYS56      -0.1314
     19  N         53.0460  -57.9000  -47.3090 N.3    58  GLU58      -0.1245
     20  CA        53.9640  -58.6480  -48.1400 C.3    58  GLU58       0.1567
     21  C         53.3160  -59.8060  -48.8510 C.2    58  GLU58       0.2260
     22  O         52.3860  -60.4210  -48.3350 O.2    58  GLU58      -0.2867
     23  CB        55.0690  -59.2600  -47.2860 C.3    58  GLU58       0.0388
     24  CG        55.8960  -58.3000  -46.5040 C.3    58  GLU58       0.1160
     25  CD        56.9300  -59.0210  -45.6770 C.2    58  GLU58       0.3649
     26  OE1       56.6380  -60.1280  -45.1730 O.co2  58  GLU58      -0.2457
     27  OE2       58.0350  -58.4730  -45.5290 O.co2  58  GLU58      -0.2457
     28  N         52.3750  -56.1910  -37.8650 N.3    78  ARG78      -0.1245
     29  CA        53.6550  -55.5030  -37.9000 C.3    78  ARG78       0.1563
     30  C         53.5480  -54.2040  -38.6960 C.2    78  ARG78       0.2260
     31  O         53.0590  -54.1980  -39.8300 O.2    78  ARG78      -0.2867
     32  CB        54.7260  -56.3800  -38.5490 C.3    78  ARG78       0.0307
     33  CG        56.0480  -55.6530  -38.7640 C.3    78  ARG78       0.0489
     34  CD        56.9890  -56.4430  -39.6510 C.3    78  ARG78       0.2205
     35  NE        58.1380  -55.6340  -40.0600 N.pl3  78  ARG78      -0.0865
     36  CZ        58.9350  -55.9220  -41.0840 C.cat  78  ARG78       0.5346
     37  NH1       58.7190  -57.0050  -41.8180 N.pl3  78  ARG78       0.1354
     38  NH2       59.9460  -55.1200  -41.3790 N.pl3  78  ARG78       0.1354
     39  N         56.9610  -45.6110  -45.2730 N.3    89  TYR89      -0.1241
     40  CA        57.8060  -45.9070  -46.4320 C.3    89  TYR89       0.1605
     41  C         57.9230  -44.6580  -47.2970 C.2    89  TYR89       0.2264
     42  O         56.9540  -43.9190  -47.4530 O.2    89  TYR89      -0.2867
     43  CB        57.2020  -47.0460  -47.2640 C.3    89  TYR89       0.0534
     44  CG        57.5410  -48.4120  -46.7240 C.ar   89  TYR89      -0.0201
     45  CD1       56.9720  -48.8760  -45.5400 C.ar   89  TYR89      -0.0009
     46  CD2       58.4900  -49.2130  -47.3600 C.ar   89  TYR89      -0.0009
     47  CE1       57.3390  -50.1030  -44.9990 C.ar   89  TYR89       0.0417
     48  CE2       58.8690  -50.4380  -46.8280 C.ar   89  TYR89       0.0417
     49  CZ        58.2890  -50.8760  -45.6480 C.ar   89  TYR89       0.1957
     50  OH        58.6600  -52.0860  -45.1120 O.3    89  TYR89      -0.2866
     51  N         56.4570  -49.4010  -52.2830 N.3    93  TYR93      -0.1241
     52  CA        57.2580  -50.6030  -52.0700 C.3    93  TYR93       0.1605
     53  C         56.6310  -51.9160  -52.5390 C.2    93  TYR93       0.2264
     54  O         55.4590  -52.1920  -52.2790 O.2    93  TYR93      -0.2867
     55  CB        57.5910  -50.6960  -50.5750 C.3    93  TYR93       0.0534
     56  CG        58.6770  -51.6810  -50.2330 C.ar   93  TYR93      -0.0201
     57  CD1       60.0200  -51.2970  -50.2350 C.ar   93  TYR93      -0.0009
     58  CD2       58.3660  -52.9970  -49.8960 C.ar   93  TYR93      -0.0009
     59  CE1       61.0260  -52.2020  -49.9030 C.ar   93  TYR93       0.0417
     60  CE2       59.3630  -53.9100  -49.5690 C.ar   93  TYR93       0.0417
     61  CZ        60.6890  -53.5020  -49.5710 C.ar   93  TYR93       0.1957
     62  OH        61.6810  -54.3860  -49.2290 O.3    93  TYR93      -0.2866
     63  N         67.6340  -63.2150  -48.9690 N.3   115  ASP115     -0.1239
     64  CA        66.6290  -63.1990  -47.9150 C.3   115  ASP115      0.1674
     65  C         65.4080  -64.0770  -48.1770 C.2   115  ASP115      0.2266
     66  O         64.3850  -63.9300  -47.5140 O.2   115  ASP115     -0.2867
     67  CB        66.1880  -61.7630  -47.5940 C.3   115  ASP115      0.1410
     68  CG        65.1960  -61.2080  -48.5960 C.2   115  ASP115      0.3668
     69  OD1       65.1920  -61.6560  -49.7620 O.co2 115  ASP115     -0.2456
     70  OD2       64.4220  -60.3070  -48.2080 O.co2 115  ASP115     -0.2456
     71  N         63.2070  -64.1750  -50.6310 N.3   117  ASP117     -0.1239
     72  CA        62.0500  -63.3810  -51.0380 C.3   117  ASP117      0.1674
     73  C         62.2610  -62.8880  -52.4590 C.2   117  ASP117      0.2266
     74  O         63.3910  -62.8280  -52.9390 O.2   117  ASP117     -0.2867
     75  CB        61.8880  -62.1340  -50.1660 C.3   117  ASP117      0.1410
     76  CG        61.2810  -62.4210  -48.8130 C.2   117  ASP117      0.3668
     77  OD1       60.8910  -63.5750  -48.5480 O.co2 117  ASP117     -0.2456
     78  OD2       61.1780  -61.4670  -48.0140 O.co2 117  ASP117     -0.2456
     79  N         63.2590  -57.0230  -54.2720 N.3   120  ASP120     -0.1239
     80  CA        62.5150  -55.8330  -53.8640 C.3   120  ASP120      0.1674
     81  C         62.6280  -54.6680  -54.8190 C.2   120  ASP120      0.2266
     82  O         63.6840  -54.4220  -55.4040 O.2   120  ASP120     -0.2867
     83  CB        62.9620  -55.3860  -52.4730 C.3   120  ASP120      0.1410
     84  CG        62.7750  -56.4620  -51.4480 C.2   120  ASP120      0.3668
     85  OD1       61.7530  -57.1590  -51.5310 O.co2 120  ASP120     -0.2456
     86  OD2       63.6320  -56.6130  -50.5680 O.co2 120  ASP120     -0.2456
     87  N         70.2840  -56.6100  -45.4210 N.3   147  ASP147     -0.1239
     88  CA        69.2890  -56.4410  -44.3780 C.3   147  ASP147      0.1674
     89  C         69.4630  -57.5330  -43.3400 C.2   147  ASP147      0.2266
     90  O         69.2460  -58.7160  -43.6150 O.2   147  ASP147     -0.2867
     91  CB        67.8830  -56.4830  -44.9710 C.3   147  ASP147      0.1410
     92  CG        66.8210  -56.1230  -43.9580 C.2   147  ASP147      0.3668
     93  OD1       67.1640  -55.6090  -42.8760 O.co2 147  ASP147     -0.2456
     94  OD2       65.6400  -56.3430  -44.2380 O.co2 147  ASP147     -0.2456
     95  N         69.8130  -58.3700  -49.8310 N.3   152  ASP152     -0.1239
     96  CA        68.4780  -57.8440  -49.9790 C.3   152  ASP152      0.1674
     97  C         68.4250  -56.6520  -50.9350 C.2   152  ASP152      0.2266
     98  O         68.0410  -55.5460  -50.5530 O.2   152  ASP152     -0.2867
     99  CB        67.9900  -57.4650  -48.5780 C.3   152  ASP152      0.1410
    100  CG        66.5120  -57.2650  -48.5190 C.2   152  ASP152      0.3668
    101  OD1       65.8200  -57.8530  -49.3660 O.co2 152  ASP152     -0.2456
    102  OD2       66.0460  -56.5380  -47.6260 O.co2 152  ASP152     -0.2456
    103  N         67.6880  -53.7760  -53.5850 N.3   154  LYS154     -0.1245
    104  CA        66.5610  -52.8630  -53.7110 C.3   154  LYS154      0.1561
    105  C         66.6550  -52.2340  -55.0880 C.2   154  LYS154      0.2260
    106  O         67.5650  -51.4450  -55.3510 O.2   154  LYS154     -0.2867
    107  CB        66.6270  -51.7690  -52.6380 C.3   154  LYS154      0.0271
    108  CG        66.4400  -52.3040  -51.2140 C.3   154  LYS154      0.0035
    109  CD        65.0000  -52.7360  -50.9770 C.3   154  LYS154      0.0206
    110  CE        64.8060  -53.3160  -49.5790 C.3   154  LYS154      0.1093
    111  NZ        65.2060  -54.7360  -49.4800 N.3   154  LYS154     -0.1314
    112  N         65.5300  -48.0630  -40.5860 N.3   192  TYR192     -0.1227
    113  CA        64.1220  -48.3600  -40.3530 C.3   192  TYR192      0.1736
    114  C         63.7550  -49.4480  -39.3430 C.2   192  TYR192      0.2595
    115  O         62.6380  -49.4480  -38.8180 O.2   192  TYR192     -0.2718
    116  CB        63.3940  -48.6000  -41.6810 C.3   192  TYR192      0.0548
    117  CG        63.4980  -49.9940  -42.2530 C.ar  192  TYR192     -0.0200
    118  CD1       64.7160  -50.4980  -42.7020 C.ar  192  TYR192     -0.0009
    119  CD2       62.3600  -50.7900  -42.3960 C.ar  192  TYR192     -0.0009
    120  CE1       64.8010  -51.7660  -43.2880 C.ar  192  TYR192      0.0417
    121  CE2       62.4310  -52.0520  -42.9770 C.ar  192  TYR192      0.0417
    122  CZ        63.6540  -52.5310  -43.4220 C.ar  192  TYR192      0.1957
    123  OH        63.7280  -53.7740  -44.0040 O.3   192  TYR192     -0.2866
    124  N         64.6770  -50.3600  -39.0510 N.am  193  LYS193     -0.1980
    125  CA        64.3880  -51.4150  -38.0850 C.3   193  LYS193      0.1596
    126  C         64.9890  -51.1470  -36.7110 C.2   193  LYS193      0.2287
    127  O         64.8020  -51.9250  -35.7750 O.2   193  LYS193     -0.2864
    128  CB        64.8850  -52.7640  -38.5980 C.3   193  LYS193      0.0298
    129  CG        64.1460  -53.2710  -39.8120 C.3   193  LYS193      0.0038
    130  CD        64.6710  -54.6370  -40.1850 C.3   193  LYS193      0.0206
    131  CE        63.9630  -55.1720  -41.3730 C.3   193  LYS193      0.1093
    132  NZ        64.5390  -56.4710  -41.7840 N.3   193  LYS193     -0.1314
@<TRIPOS>BOND
     1    82    81    2
     2   106   105    2
     3   105   104    1
     4    81    80    1
     5    79    80    1
     6    80    83    1
     7   104   103    1
     8   104   107    1
     9    74    73    2
    10     1     2    1
    11   107   108    1
    12    53    54    2
    13    53    52    1
    14    83    84    1
    15    73    72    1
    16    51    52    1
    17    52    55    1
    18     6     7    1
    19     6     5    1
    20     2     5    1
    21     2     3    1
    22    85    84   ar
    23    84    86   ar
    24     7     9   ar
    25     7     8   ar
    26   108   109    1
    27    72    71    1
    28    72    75    1
    29   109   110    1
    30    97    98    2
    31    97    96    1
    32     3     4    2
    33    55    56    1
    34    57    56   ar
    35    57    59   ar
    36    56    58   ar
    37    75    76    1
    38    96    95    1
    39    96    99    1
    40    59    61   ar
    41    58    60   ar
    42    69    68   ar
    43   110   111    1
    44    61    60   ar
    45    61    62    1
    46   101   100   ar
    47    63    64    1
    48    21    22    2
    49    21    20    1
    50    76    77   ar
    51    76    78   ar
    52    68    70   ar
    53    68    67    1
    54    99   100    1
    55   100   102   ar
    56    65    64    1
    57    65    66    2
    58    20    19    1
    59    20    23    1
    60    64    67    1
    61    42    41    2
    62    46    48   ar
    63    46    44   ar
    64    41    40    1
    65    23    24    1
    66    43    44    1
    67    43    40    1
    68    48    49   ar
    69    44    45   ar
    70    24    25    1
    71    18    17    1
    72    40    39    1
    73    25    27   ar
    74    25    26   ar
    75    49    50    1
    76    49    47   ar
    77    45    47   ar
    78    87    88    1
    79    17    16    1
    80    91    88    1
    81    91    92    1
    82    16    15    1
    83    88    89    1
    84    12    13    2
    85    12    11    1
    86    94    92   ar
    87   123   122    1
    88    92    93   ar
    89    90    89    2
    90    11    10    1
    91    11    14    1
    92   122   120   ar
    93   122   121   ar
    94   120   118   ar
    95    15    14    1
    96   121   119   ar
    97   118   117   ar
    98   119   117   ar
    99   117   116    1
   100    37    36    1
   101   132   131    1
   102   116   113    1
   103    38    36    1
   104   131   130    1
   105    36    35    2
   106   112   113    1
   107   113   114    1
   108   130   129    1
   109    35    34    1
   110    31    30    2
   111   129   128    1
   112    34    33    1
   113   114   124   am
   114   114   115    2
   115   124   125    1
   116    33    32    1
   117    30    29    1
   118   128   125    1
   119    32    29    1
   120   125   126    1
   121    29    28    1
   122   126   127    2
