@<TRIPOS>MOLECULE
tmp/1e6cB02.pdb
 73 66 0 0 0
SMALL
GASTEIGER

@<TRIPOS>ATOM
      1  N         -1.8800   18.0350   27.3320 N.3   108  ALA108     -0.1245
      2  CA        -2.4970   17.0760   28.2340 C.3   108  ALA108      0.1562
      3  C         -3.1860   15.9660   27.4610 C.2   108  ALA108      0.2260
      4  O         -3.0750   14.7890   27.8790 O.2   108  ALA108     -0.2867
      5  CB        -3.4370   17.8110   29.1810 C.3   108  ALA108      0.0290
      6  N         -0.5620   13.4910   26.1660 N.3   111  LEU111     -0.1231
      7  CA        -0.2160   12.6150   27.2600 C.3   111  LEU111      0.1693
      8  C         -1.2610   11.5330   27.4500 C.2   111  LEU111      0.2591
      9  O         -0.9160   10.3840   27.4790 O.2   111  LEU111     -0.2718
     10  CB         0.0130   13.3730   28.5740 C.3   111  LEU111      0.0284
     11  CG         1.3800   14.0760   28.6110 C.3   111  LEU111      0.0019
     12  CD1        1.4960   15.0520   29.7550 C.3   111  LEU111      0.0001
     13  CD2        2.4880   13.0190   28.7310 C.3   111  LEU111      0.0001
     14  N         -2.5450   11.8570   27.5640 N.am  112  GLN112     -0.1979
     15  CA        -3.5990   10.8650   27.6720 C.3   112  GLN112      0.1601
     16  C         -3.6000    9.8670   26.5190 C.2   112  GLN112      0.2287
     17  O         -3.6730    8.6520   26.7160 O.2   112  GLN112     -0.2864
     18  CB        -4.9690   11.6110   27.6410 C.3   112  GLN112      0.0394
     19  CG        -5.1110   12.4940   28.8700 C.3   112  GLN112      0.0908
     20  CD        -6.3890   13.3390   28.7990 C.2   112  GLN112      0.2608
     21  OE1       -7.3750   12.8970   28.2160 O.2   112  GLN112     -0.2717
     22  NE2       -6.3670   14.5340   29.3390 N.am  112  GLN112     -0.0878
     23  N         -0.9960    7.2460   26.9660 N.3   115  LEU115     -0.1231
     24  CA        -1.0240    6.4760   28.1960 C.3   115  LEU115      0.1693
     25  C         -2.2990    5.7650   28.5760 C.2   115  LEU115      0.2591
     26  O         -2.2710    4.8750   29.4340 O.2   115  LEU115     -0.2718
     27  CB        -0.6750    7.4450   29.3750 C.3   115  LEU115      0.0284
     28  CG         0.7830    7.8940   29.4520 C.3   115  LEU115      0.0019
     29  CD1        0.9660    8.9470   30.5510 C.3   115  LEU115      0.0001
     30  CD2        1.6880    6.7010   29.7230 C.3   115  LEU115      0.0001
     31  N         -3.4790    6.2250   28.1700 N.am  116  GLN116     -0.1979
     32  CA        -4.7530    5.6280   28.5520 C.3   116  GLN116      0.1601
     33  C         -5.6440    5.3460   27.3790 C.2   116  GLN116      0.2287
     34  O         -5.7020    6.2440   26.5240 O.2   116  GLN116     -0.2864
     35  CB        -5.4270    6.6310   29.5230 C.3   116  GLN116      0.0394
     36  CG        -4.7200    6.7770   30.8430 C.3   116  GLN116      0.0908
     37  CD        -5.1960    7.8720   31.7750 C.2   116  GLN116      0.2608
     38  OE1       -5.3090    7.5380   32.9700 O.2   116  GLN116     -0.2717
     39  NE2       -5.4330    9.0790   31.2890 N.am  116  GLN116     -0.0878
     40  N        -11.0950    8.0050   28.2250 N.3   119  GLN119     -0.1245
     41  CA       -11.2780    8.6750   29.4940 C.3   119  GLN119      0.1566
     42  C        -12.5750    8.5770   30.2740 C.2   119  GLN119      0.2260
     43  O        -13.2330    9.6330   30.4660 O.2   119  GLN119     -0.2867
     44  CB       -10.9720   10.1820   29.2810 C.3   119  GLN119      0.0367
     45  CG       -10.2780   10.7110   30.5430 C.3   119  GLN119      0.0905
     46  CD        -8.8390   11.0790   30.2610 C.2   119  GLN119      0.2608
     47  OE1       -8.1670   11.5270   31.1840 O.2   119  GLN119     -0.2717
     48  NE2       -8.4590   10.9070   28.9960 N.am  119  GLN119     -0.0878
     49  N         -9.5680   10.8460   38.6630 N.3   125  GLY125     -0.1225
     50  CA        -9.1680   11.4140   37.3910 C.3   125  GLY125      0.1811
     51  C         -9.0530   12.9080   37.2020 C.2   125  GLY125      0.2280
     52  O         -8.0730   13.3800   36.6120 O.2   125  GLY125     -0.2866
     53  N         -5.9970   14.6190   39.4620 N.3   128  ILE128     -0.1231
     54  CA        -4.7020   14.3450   38.8530 C.3   128  ILE128      0.1692
     55  C         -4.5520   15.0570   37.5140 C.2   128  ILE128      0.2591
     56  O         -3.4970   15.6410   37.2480 O.2   128  ILE128     -0.2718
     57  CB        -4.3830   12.8580   38.6670 C.3   128  ILE128      0.0266
     58  CG1       -5.2040   12.2200   37.5420 C.3   128  ILE128      0.0019
     59  CG2       -4.5960   12.1160   39.9810 C.3   128  ILE128      0.0020
     60  CD1       -4.4590   11.1080   36.8420 C.3   128  ILE128      0.0001
     61  N         -5.6090   15.0640   36.6920 N.am  129  ALA129     -0.1980
     62  CA        -5.5460   15.8240   35.4550 C.3   129  ALA129      0.1597
     63  C         -5.2970   17.2930   35.7800 C.2   129  ALA129      0.2287
     64  O         -4.5420   18.0200   35.1350 O.2   129  ALA129     -0.2864
     65  CB        -6.8510   15.7230   34.6930 C.3   129  ALA129      0.0319
     66  N         -1.7270   18.0620   36.5820 N.3   132  MET132     -0.1245
     67  CA        -0.8510   18.0410   35.3820 C.3   132  MET132      0.1570
     68  C         -1.1090   19.3120   34.6050 C.2   132  MET132      0.2261
     69  O         -0.1590   19.9290   34.0690 O.2   132  MET132     -0.2867
     70  CB        -1.0810   16.7850   34.5760 C.3   132  MET132      0.0387
     71  CG        -0.3880   15.5430   35.1340 C.3   132  MET132      0.0595
     72  SD         1.4170   15.5690   34.9850 S.3   132  MET132     -0.1393
     73  CE         1.5720   16.5550   33.4740 C.3   132  MET132      0.0692
@<TRIPOS>BOND
     1     6     7    1
     2    16    17    2
     3    16    15    1
     4    34    33    2
     5    23    24    1
     6     7     8    1
     7     7    10    1
     8     1     2    1
     9    33    32    1
    10     8     9    2
    11     8    14   am
    12     3     4    2
    13     3     2    1
    14    14    15    1
    15    18    15    1
    16    18    19    1
    17    31    32    1
    18    31    25   am
    19    24    25    1
    20    24    27    1
    21    21    20    2
    22    40    41    1
    23     2     5    1
    24    32    35    1
    25    10    11    1
    26    25    26    2
    27    11    13    1
    28    11    12    1
    29    20    19    1
    30    20    22   am
    31    48    46   am
    32    44    41    1
    33    44    45    1
    34    27    28    1
    35    28    30    1
    36    28    29    1
    37    41    42    1
    38    35    36    1
    39    46    45    1
    40    46    47    2
    41    42    43    2
    42    36    37    1
    43    39    37   am
    44    37    38    2
    45    73    72    1
    46    69    68    2
    47    70    71    1
    48    70    67    1
    49    68    67    1
    50    65    62    1
    51    72    71    1
    52    64    63    2
    53    67    66    1
    54    62    63    1
    55    62    61    1
    56    52    51    2
    57    61    55   am
    58    60    58    1
    59    51    50    1
    60    56    55    2
    61    50    49    1
    62    55    54    1
    63    58    57    1
    64    57    54    1
    65    57    59    1
    66    54    53    1
