@<TRIPOS>MOLECULE
tmp/1e6cB01.pdb
 75 71 0 0 0
SMALL
GASTEIGER

@<TRIPOS>ATOM
      1  N         19.0760   18.7210   23.3840 N.3    34  ASP34      -0.1239
      2  CA        18.8240   17.4190   23.9570 C.3    34  ASP34       0.1674
      3  C         19.7380   16.3630   23.3020 C.2    34  ASP34       0.2266
      4  O         20.1030   15.4210   23.9440 O.2    34  ASP34      -0.2867
      5  CB        17.3770   16.9900   23.7410 C.3    34  ASP34       0.1410
      6  CG        16.4520   17.5000   24.8330 C.2    34  ASP34       0.3668
      7  OD1       16.8290   17.9910   25.8790 O.co2  34  ASP34      -0.2456
      8  OD2       15.2450   17.2670   24.5760 O.co2  34  ASP34      -0.2456
      9  N         23.1590   16.8320   24.8260 N.3    37  MET37      -0.1230
     10  CA        23.1380   16.1600   26.0840 C.3    37  MET37       0.1702
     11  C         23.1890   14.6230   26.0450 C.2    37  MET37       0.2592
     12  O         24.0060   14.0060   26.7510 O.2    37  MET37      -0.2718
     13  CB        21.8780   16.5480   26.9120 C.3    37  MET37       0.0401
     14  CG        22.1490   17.9310   27.5340 C.3    37  MET37       0.0596
     15  SD        20.8400   18.2910   28.7140 S.3    37  MET37      -0.1393
     16  CE        21.4580   17.3810   30.1110 C.3    37  MET37       0.0692
     17  N         22.5010   13.9900   25.1300 N.am   38  GLN38      -0.1979
     18  CA        22.6380   12.5470   24.9670 C.3    38  GLN38       0.1601
     19  C         24.0860   12.2020   24.6010 C.2    38  GLN38       0.2287
     20  O         24.6120   11.2140   25.1340 O.2    38  GLN38      -0.2864
     21  CB        21.7450   11.9670   23.8640 C.3    38  GLN38       0.0394
     22  CG        20.2600   12.0240   24.2590 C.3    38  GLN38       0.0908
     23  CD        19.4010   11.7100   23.0380 C.2    38  GLN38       0.2608
     24  OE1       19.6960   12.0160   21.8770 O.2    38  GLN38      -0.2717
     25  NE2       18.3320   10.9850   23.3140 N.am   38  GLN38      -0.0878
     26  N         26.3630   13.5710   27.9860 N.3    41  SER41      -0.1202
     27  CA        25.9700   13.1130   29.3160 C.3    41  SER41       0.2020
     28  C         25.2180   11.8040   29.3360 C.2    41  SER41       0.2619
     29  O         24.8420   11.2910   30.3920 O.2    41  SER41      -0.2717
     30  CB        25.0640   14.1540   29.9940 C.3    41  SER41       0.2103
     31  OG        23.8580   14.2960   29.3020 O.3    41  SER41      -0.2182
     32  N         25.0460   11.1600   28.1670 N.am   42  GLY42      -0.1942
     33  CA        24.4430    9.8540   28.0600 C.3    42  GLY42       0.2014
     34  C         22.9470    9.8400   27.8220 C.2    42  GLY42       0.2639
     35  O         22.3240   10.8840   27.8660 O.2    42  GLY42      -0.2714
     36  N         22.3940    8.6180   27.6310 N.am   43  MET43      -0.1963
     37  CA        21.0180    8.4700   27.2270 C.3    43  MET43       0.1736
     38  C         19.9690    8.5300   28.3190 C.2    43  MET43       0.2617
     39  O         18.7570    8.4420   28.0090 O.2    43  MET43      -0.2715
     40  CB        20.8330    7.0840   26.5580 C.3    43  MET43       0.0427
     41  CG        21.8060    6.8270   25.4210 C.3    43  MET43       0.0599
     42  SD        21.5250    7.9970   24.0660 S.3    43  MET43      -0.1393
     43  CE        19.9660    7.3330   23.4690 C.3    43  MET43       0.0692
     44  N         20.3490    8.6090   29.5970 N.am   44  THR44      -0.1937
     45  CA        19.3320    8.6410   30.6380 C.3    44  THR44       0.2028
     46  C         19.4430    9.8210   31.6190 C.2    44  THR44       0.2642
     47  O         20.5140   10.2640   32.0380 O.2    44  THR44      -0.2714
     48  CB        19.3030    7.3600   31.5020 C.3    44  THR44       0.1808
     49  OG1       20.4960    7.2900   32.2930 O.3    44  THR44      -0.2208
     50  CG2       19.1480    6.1010   30.6550 C.3    44  THR44       0.0379
     51  N         18.2720   10.2510   32.0640 N.am   45  VAL45      -0.1977
     52  CA        18.1980   11.2560   33.1370 C.3    45  VAL45       0.1596
     53  C         18.7140   10.5560   34.3890 C.2    45  VAL45       0.2287
     54  O         19.4170   11.1110   35.2280 O.2    45  VAL45      -0.2864
     55  CB        16.7770   11.7870   33.3280 C.3    45  VAL45       0.0276
     56  CG1       16.6910   12.7230   34.5060 C.3    45  VAL45       0.0022
     57  CG2       16.3270   12.4790   32.0280 C.3    45  VAL45       0.0022
     58  N         22.5320   10.6370   35.2660 N.3    48  VAL48      -0.1245
     59  CA        22.9980   11.9720   35.5510 C.3    48  VAL48       0.1561
     60  C         22.5290   12.3850   36.9550 C.2    48  VAL48       0.2260
     61  O         23.3340   12.9020   37.7360 O.2    48  VAL48      -0.2867
     62  CB        22.5720   13.0250   34.5380 C.3    48  VAL48       0.0252
     63  CG1       23.0870   14.3910   34.9660 C.3    48  VAL48       0.0019
     64  CG2       23.0280   12.6840   33.0870 C.3    48  VAL48       0.0019
     65  N         22.1990   17.9390   36.5940 N.3    57  PHE57      -0.1241
     66  CA        21.4520   17.7570   35.3380 C.3    57  PHE57       0.1605
     67  C         21.1760   19.1400   34.7470 C.2    57  PHE57       0.2264
     68  O         21.5200   19.3610   33.6140 O.2    57  PHE57      -0.2867
     69  CB        20.1090   17.0300   35.6280 C.3    57  PHE57       0.0534
     70  CG        19.2870   16.8610   34.3610 C.ar   57  PHE57      -0.0203
     71  CD1       19.5910   15.8070   33.4960 C.ar   57  PHE57      -0.0042
     72  CD2       18.3450   17.8100   34.0050 C.ar   57  PHE57      -0.0042
     73  CE1       18.9070   15.6700   32.3150 C.ar   57  PHE57      -0.0003
     74  CE2       17.6640   17.6690   32.8010 C.ar   57  PHE57      -0.0003
     75  CZ        17.9320   16.6060   31.9880 C.ar   57  PHE57      -0.0000
@<TRIPOS>BOND
     1    24    23    2
     2    23    25   am
     3    23    22    1
     4     3     4    2
     5     3     2    1
     6     1     2    1
     7    43    42    1
     8     5     2    1
     9     5     6    1
    10    21    22    1
    11    21    18    1
    12    42    41    1
    13     8     6   ar
    14    19    18    1
    15    19    20    2
    16     9    10    1
    17     6     7   ar
    18    18    17    1
    19    17    11   am
    20    41    40    1
    21    11    10    1
    22    11    12    2
    23    10    13    1
    24    40    37    1
    25    13    14    1
    26    37    36    1
    27    37    38    1
    28    14    15    1
    29    36    34   am
    30    34    35    2
    31    34    33    1
    32    26    27    1
    33    39    38    2
    34    33    32    1
    35    32    28   am
    36    38    44   am
    37    15    16    1
    38    31    30    1
    39    27    28    1
    40    27    30    1
    41    28    29    2
    42    44    45    1
    43    45    48    1
    44    45    46    1
    45    50    48    1
    46    48    49    1
    47    46    47    2
    48    46    51   am
    49    75    73   ar
    50    75    74   ar
    51    57    55    1
    52    51    52    1
    53    73    71   ar
    54    74    72   ar
    55    64    62    1
    56    52    55    1
    57    52    53    1
    58    55    56    1
    59    71    70   ar
    60    68    67    2
    61    72    70   ar
    62    70    69    1
    63    53    54    2
    64    62    63    1
    65    62    59    1
    66    67    66    1
    67    58    59    1
    68    66    69    1
    69    66    65    1
    70    59    60    1
    71    60    61    2
