@<TRIPOS>MOLECULE
tmp/1e6cA00.pdb
 75 71 0 0 0
SMALL
GASTEIGER

@<TRIPOS>ATOM
      1  N          2.3600    7.7040   13.7670 N.3    34  ASP34      -0.1239
      2  CA         2.0240    9.0480   14.2720 C.3    34  ASP34       0.1674
      3  C          2.1350   10.1280   13.1930 C.2    34  ASP34       0.2266
      4  O          1.3190   11.0590   13.1440 O.2    34  ASP34      -0.2867
      5  CB         2.9620    9.4370   15.4090 C.3    34  ASP34       0.1410
      6  CG         2.4680    8.9390   16.7620 C.2    34  ASP34       0.3668
      7  OD1        1.3340    8.4650   16.9110 O.co2  34  ASP34      -0.2456
      8  OD2        3.2510    9.1910   17.7050 O.co2  34  ASP34      -0.2456
      9  N         -0.9130    9.6920   11.0110 N.3    37  MET37      -0.1230
     10  CA        -2.0220   10.3410   11.6390 C.3    37  MET37       0.1702
     11  C         -1.9850   11.8630   11.5460 C.2    37  MET37       0.2592
     12  O         -3.0400   12.4700   11.2290 O.2    37  MET37      -0.2718
     13  CB        -2.1230    9.9260   13.1200 C.3    37  MET37       0.0401
     14  CG        -2.6330    8.4890   13.2360 C.3    37  MET37       0.0596
     15  SD        -3.1180    8.1990   14.9630 S.3    37  MET37      -0.1393
     16  CE        -4.6790    9.0370   14.9810 C.3    37  MET37       0.0692
     17  N         -0.8620   12.5000   11.6970 N.am   38  GLN38      -0.1979
     18  CA        -0.8010   13.9560   11.5070 C.3    38  GLN38       0.1601
     19  C         -1.2360   14.2670   10.0610 C.2    38  GLN38       0.2287
     20  O         -1.9400   15.2520    9.8080 O.2    38  GLN38      -0.2864
     21  CB         0.6170   14.4950   11.7120 C.3    38  GLN38       0.0394
     22  CG         1.0280   14.5040   13.1820 C.3    38  GLN38       0.0908
     23  CD         2.5130   14.7590   13.3280 C.2    38  GLN38       0.2608
     24  OE1        3.4090   14.2970   12.6080 O.2    38  GLN38      -0.2717
     25  NE2        2.7920   15.5780   14.3280 N.am   38  GLN38      -0.0878
     26  N         -5.2640   12.9240    9.7670 N.3    41  SER41      -0.1202
     27  CA        -6.2190   13.3770   10.7840 C.3    41  SER41       0.2020
     28  C         -5.8790   14.7030   11.4100 C.2    41  SER41       0.2619
     29  O         -6.6120   15.2310   12.2440 O.2    41  SER41      -0.2717
     30  CB        -6.3240   12.3390   11.8900 C.3    41  SER41       0.2103
     31  OG        -5.1980   12.1930   12.6980 O.3    41  SER41      -0.2182
     32  N         -4.7840   15.3480   10.9680 N.am   42  GLY42      -0.1942
     33  CA        -4.3860   16.6340   11.4760 C.3    42  GLY42       0.2014
     34  C         -3.4230   16.6390   12.6610 C.2    42  GLY42       0.2639
     35  O         -3.0740   15.6110   13.2360 O.2    42  GLY42      -0.2714
     36  N         -3.0370   17.8880   13.0310 N.am   43  MET43      -0.1963
     37  CA        -1.9550   17.9930   14.0020 C.3    43  MET43       0.1736
     38  C         -2.3760   17.8900   15.4560 C.2    43  MET43       0.2617
     39  O         -1.4790   18.0270   16.3100 O.2    43  MET43      -0.2715
     40  CB        -1.3030   19.3800   13.8190 C.3    43  MET43       0.0427
     41  CG        -0.8130   19.6150   12.3910 C.3    43  MET43       0.0599
     42  SD         0.5010   18.4410   12.0000 S.3    43  MET43      -0.1393
     43  CE         1.7690   19.0760   13.0970 C.3    43  MET43       0.0692
     44  N         -3.6740   17.8400   15.7880 N.am   44  THR44      -0.1937
     45  CA        -4.0350   17.8360   17.1940 C.3    44  THR44       0.2028
     46  C         -4.9240   16.6430   17.5470 C.2    44  THR44       0.2642
     47  O         -5.7750   16.1680   16.8060 O.2    44  THR44      -0.2714
     48  CB        -4.7380   19.1370   17.6600 C.3    44  THR44       0.1808
     49  OG1       -6.0240   19.1910   17.0280 O.3    44  THR44      -0.2208
     50  CG2       -3.9450   20.3820   17.3500 C.3    44  THR44       0.0379
     51  N         -4.7420   16.2250   18.7950 N.am   45  VAL45      -0.1977
     52  CA        -5.6420   15.2410   19.3970 C.3    45  VAL45       0.1596
     53  C         -6.9770   15.9400   19.6190 C.2    45  VAL45       0.2287
     54  O         -8.0500   15.3490   19.4160 O.2    45  VAL45      -0.2864
     55  CB        -5.0470   14.7070   20.7020 C.3    45  VAL45       0.0276
     56  CG1       -6.0530   13.8050   21.3920 C.3    45  VAL45       0.0022
     57  CG2       -3.7310   13.9840   20.4770 C.3    45  VAL45       0.0022
     58  N         -9.6170   15.8180   16.6930 N.3    48  VAL48      -0.1245
     59  CA       -10.1580   14.4830   16.4660 C.3    48  VAL48       0.1561
     60  C        -11.0990   14.1160   17.6100 C.2    48  VAL48       0.2260
     61  O        -12.1910   13.6110   17.3090 O.2    48  VAL48      -0.2867
     62  CB        -9.0680   13.4350   16.3000 C.3    48  VAL48       0.0252
     63  CG1       -9.6350   12.0420   16.0450 C.3    48  VAL48       0.0019
     64  CG2       -8.0140   13.8040   15.2120 C.3    48  VAL48       0.0019
     65  N        -10.6500    8.5520   17.8120 N.3    57  PHE57      -0.1241
     66  CA        -9.1970    8.7030   17.8010 C.3    57  PHE57       0.1605
     67  C         -8.5600    7.3020   17.7020 C.2    57  PHE57       0.2264
     68  O         -7.7210    7.1080   16.8210 O.2    57  PHE57      -0.2867
     69  CB        -8.7270    9.4730   19.0390 C.3    57  PHE57       0.0534
     70  CG        -7.2290    9.6170   19.0620 C.ar   57  PHE57      -0.0203
     71  CD1       -6.6410   10.6950   18.4090 C.ar   57  PHE57      -0.0042
     72  CD2       -6.4420    8.6690   19.6830 C.ar   57  PHE57      -0.0042
     73  CE1       -5.2670   10.7900   18.4330 C.ar   57  PHE57      -0.0003
     74  CE2       -5.0420    8.7760   19.6960 C.ar   57  PHE57      -0.0003
     75  CZ        -4.4770    9.8720   19.0620 C.ar   57  PHE57      -0.0000
@<TRIPOS>BOND
     1    26    27    1
     2    20    19    2
     3    19    18    1
     4    27    28    1
     5    27    30    1
     6    32    28   am
     7    32    33    1
     8     9    10    1
     9    12    11    2
    10    28    29    2
    11    33    34    1
    12    18    17    1
    13    18    21    1
    14    11    10    1
    15    11    17   am
    16    10    13    1
    17    21    22    1
    18    30    31    1
    19    42    41    1
    20    42    43    1
    21    41    40    1
    22    24    23    2
    23    34    36   am
    24    34    35    2
    25    36    37    1
    26    13    14    1
    27     4     3    2
    28    22    23    1
    29     3     2    1
    30    14    15    1
    31    23    25   am
    32     1     2    1
    33    40    37    1
    34    37    38    1
    35     2     5    1
    36    15    16    1
    37    64    62    1
    38     5     6    1
    39    38    44   am
    40    38    39    2
    41    44    45    1
    42    63    62    1
    43    62    59    1
    44    59    58    1
    45    59    60    1
    46     6     7   ar
    47     6     8   ar
    48    47    46    2
    49    68    67    2
    50    49    48    1
    51    45    46    1
    52    45    48    1
    53    61    60    2
    54    50    48    1
    55    46    51   am
    56    67    66    1
    57    66    65    1
    58    66    69    1
    59    71    73   ar
    60    71    70   ar
    61    73    75   ar
    62    51    52    1
    63    69    70    1
    64    75    74   ar
    65    70    72   ar
    66    52    53    1
    67    52    55    1
    68    54    53    2
    69    72    74   ar
    70    57    55    1
    71    55    56    1
