@<TRIPOS>MOLECULE
tmp/1e6iA00.pdb
 170 168 0 0 0
SMALL
GASTEIGER

@<TRIPOS>ATOM
      1  N         16.8960   21.5950   -3.2230 N.3    23  PRO23      -0.2102
      2  CA        15.8830   21.8850   -4.2550 C.3    23  PRO23       0.1504
      3  C         14.7850   22.8810   -3.8440 C.2    23  PRO23       0.2575
      4  O         14.0810   23.4250   -4.7010 O.2    23  PRO23      -0.2718
      5  CB        15.2210   20.5430   -4.4940 C.3    23  PRO23       0.0282
      6  CG        16.1440   19.5450   -3.9770 C.3    23  PRO23       0.0208
      7  CD        16.8700   20.1890   -2.8070 C.3    23  PRO23       0.0893
      8  N         14.6500   23.0880   -2.5480 N.am   24  PHE24      -0.1977
      9  CA        13.5220   23.8220   -1.9590 C.3    24  PHE24       0.1639
     10  C         13.9170   25.1890   -1.3640 C.2    24  PHE24       0.2290
     11  O         13.0880   25.8780   -0.7960 O.2    24  PHE24      -0.2864
     12  CB        12.9040   22.9490   -0.8530 C.3    24  PHE24       0.0560
     13  CG        12.6310   21.5140   -1.2910 C.ar   24  PHE24      -0.0200
     14  CD1       11.7280   21.2340   -2.3030 C.ar   24  PHE24      -0.0042
     15  CD2       13.3000   20.4640   -0.7010 C.ar   24  PHE24      -0.0042
     16  CE1       11.4980   19.9260   -2.6970 C.ar   24  PHE24      -0.0003
     17  CE2       13.0830   19.1530   -1.0990 C.ar   24  PHE24      -0.0003
     18  CZ        12.1920   18.8870   -2.0930 C.ar   24  PHE24      -0.0000
     19  N         14.7400   28.0160   -2.7760 N.3    26  GLN26      -0.1245
     20  CA        14.1960   29.1590   -3.4940 C.3    26  GLN26       0.1566
     21  C         13.0550   28.7070   -4.3740 C.2    26  GLN26       0.2260
     22  O         12.9310   27.5130   -4.6500 O.2    26  GLN26      -0.2867
     23  CB        15.2860   29.7740   -4.3790 C.3    26  GLN26       0.0367
     24  CG        16.2630   30.6120   -3.5740 C.3    26  GLN26       0.0905
     25  CD        17.6650   30.5770   -4.1220 C.2    26  GLN26       0.2608
     26  OE1       17.8920   30.9090   -5.2910 O.2    26  GLN26      -0.2717
     27  NE2       18.6200   30.1680   -3.2830 N.am   26  GLN26      -0.0878
     28  N         10.8120   27.7140   -7.5300 N.3    28  VAL28      -0.1245
     29  CA        11.1750   27.0720   -8.7740 C.3    28  VAL28       0.1561
     30  C         11.2740   28.1400   -9.8420 C.2    28  VAL28       0.2260
     31  O         10.4430   29.0340   -9.9040 O.2    28  VAL28      -0.2867
     32  CB        10.1790   25.9640   -9.1510 C.3    28  VAL28       0.0252
     33  CG1       10.3330   25.5600  -10.6310 C.3    28  VAL28       0.0019
     34  CG2       10.3740   24.7560   -8.2060 C.3    28  VAL28       0.0019
     35  N         13.6720   27.5390  -16.1350 N.3    32  GLU32      -0.1231
     36  CA        14.2820   26.2150  -16.0730 C.3    32  GLU32       0.1699
     37  C         13.2170   25.1130  -16.0590 C.2    32  GLU32       0.2592
     38  O         13.4920   23.9790  -16.4480 O.2    32  GLU32      -0.2718
     39  CB        15.1850   26.0830  -14.8570 C.3    32  GLU32       0.0402
     40  CG        16.5590   26.7360  -15.0000 C.3    32  GLU32       0.1161
     41  CD        17.5070   26.0040  -15.9520 C.2    32  GLU32       0.3649
     42  OE1       17.1370   24.9510  -16.5310 O.co2  32  GLU32      -0.2457
     43  OE2       18.6470   26.4900  -16.1260 O.co2  32  GLU32      -0.2457
     44  N         12.0140   25.4470  -15.5980 N.am   33  VAL33      -0.1980
     45  CA        10.9220   24.4800  -15.5220 C.3    33  VAL33       0.1595
     46  C          9.6670   25.1810  -16.0070 C.2    33  VAL33       0.2287
     47  O          8.7980   25.5090  -15.2160 O.2    33  VAL33      -0.2864
     48  CB        10.6890   23.9410  -14.0900 C.3    33  VAL33       0.0276
     49  CG1        9.8310   22.6590  -14.1460 C.3    33  VAL33       0.0022
     50  CG2       12.0070   23.6980  -13.3750 C.3    33  VAL33       0.0022
     51  N          6.7050   24.6430  -17.3810 N.3    35  ASP35      -0.1225
     52  CA         5.2950   24.3470  -17.0770 C.3    35  ASP35       0.1805
     53  C          4.9850   24.2420  -15.5830 C.2    35  ASP35       0.2597
     54  O          3.8540   23.9630  -15.2160 O.2    35  ASP35      -0.2718
     55  CB         4.8410   23.0520  -17.7570 C.3    35  ASP35       0.1424
     56  CG         5.5470   21.8230  -17.2290 C.2    35  ASP35       0.3668
     57  OD1        6.3700   21.9370  -16.2920 O.co2  35  ASP35      -0.2456
     58  OD2        5.3500   20.6950  -17.7170 O.co2  35  ASP35      -0.2456
     59  N          5.9830   24.4360  -14.7280 N.am   36  TYR36      -0.1976
     60  CA         5.7710   24.2210  -13.2820 C.3    36  TYR36       0.1639
     61  C          4.5070   24.8880  -12.7150 C.2    36  TYR36       0.2290
     62  O          3.6890   24.2380  -12.0690 O.2    36  TYR36      -0.2864
     63  CB         6.9920   24.6550  -12.4940 C.3    36  TYR36       0.0560
     64  CG         6.9060   24.3050  -11.0110 C.ar   36  TYR36      -0.0198
     65  CD1        7.1600   23.0140  -10.5590 C.ar   36  TYR36      -0.0009
     66  CD2        6.5500   25.2640  -10.0720 C.ar   36  TYR36      -0.0009
     67  CE1        7.0650   22.7020   -9.2190 C.ar   36  TYR36       0.0417
     68  CE2        6.4570   24.9590   -8.7320 C.ar   36  TYR36       0.0417
     69  CZ         6.7150   23.6800   -8.3050 C.ar   36  TYR36       0.1957
     70  OH         6.6300   23.3890   -6.9620 O.3    36  TYR36      -0.2866
     71  N          0.8920   23.6950  -13.2510 N.3    39  PHE39      -0.1241
     72  CA         0.4110   22.6130  -12.4210 C.3    39  PHE39       0.1605
     73  C          0.3440   22.9130  -10.9340 C.2    39  PHE39       0.2264
     74  O         -0.5480   22.4340  -10.2530 O.2    39  PHE39      -0.2867
     75  CB         1.3060   21.3970  -12.6230 C.3    39  PHE39       0.0534
     76  CG         1.2620   20.8640  -14.0110 C.ar   39  PHE39      -0.0203
     77  CD1        0.1610   20.1530  -14.4490 C.ar   39  PHE39      -0.0042
     78  CD2        2.3100   21.0870  -14.8840 C.ar   39  PHE39      -0.0042
     79  CE1        0.1010   19.6640  -15.7410 C.ar   39  PHE39      -0.0003
     80  CE2        2.2670   20.6040  -16.1780 C.ar   39  PHE39      -0.0003
     81  CZ         1.1580   19.8850  -16.6130 C.ar   39  PHE39      -0.0000
     82  N          6.0650   18.9470   -4.3980 N.3    75  CYS75      -0.1221
     83  CA         7.2060   18.2580   -4.9990 C.3    75  CYS75       0.1808
     84  C          6.8120   16.8560   -5.4580 C.2    75  CYS75       0.2601
     85  O          7.1520   16.4470   -6.5510 O.2    75  CYS75      -0.2717
     86  CB         8.3530   18.1340   -4.0140 C.3    75  CYS75       0.0970
     87  SG         9.8720   17.4390   -4.7790 S.3    75  CYS75      -0.0800
     88  N          6.0840   16.1380   -4.6160 N.am   76  ARG76      -0.1965
     89  CA         5.6760   14.7760   -4.9580 C.3    76  ARG76       0.1729
     90  C          4.5280   14.7940   -5.9680 C.2    76  ARG76       0.2616
     91  O          4.2900   13.8070   -6.6490 O.2    76  ARG76      -0.2715
     92  CB         5.3100   13.9830   -3.7190 C.3    76  ARG76       0.0348
     93  CG         6.4720   13.6910   -2.8030 C.3    76  ARG76       0.0492
     94  CD         6.1460   12.7300   -1.7010 C.3    76  ARG76       0.2205
     95  NE         5.1810   13.3400   -0.7980 N.pl3  76  ARG76      -0.0865
     96  CZ         5.4790   13.8330    0.4020 C.cat  76  ARG76       0.5346
     97  NH1        6.6940   13.7360    0.9010 N.pl3  76  ARG76       0.1354
     98  NH2        4.5420   14.4110    1.1320 N.pl3  76  ARG76       0.1354
     99  N          3.8200   15.9110   -6.0670 N.am   77  MET77      -0.1963
    100  CA         2.7740   16.0280   -7.0540 C.3    77  MET77       0.1736
    101  C          3.3850   16.2370   -8.4630 C.2    77  MET77       0.2616
    102  O          2.9260   15.6440   -9.4400 O.2    77  MET77      -0.2715
    103  CB         1.8310   17.1820   -6.7100 C.3    77  MET77       0.0427
    104  CG         0.7340   17.4430   -7.7590 C.3    77  MET77       0.0599
    105  SD        -0.2200   18.9410   -7.3500 S.3    77  MET77      -0.1393
    106  CE        -1.2370   19.0820   -8.7570 C.3    77  MET77       0.0692
    107  N          4.4020   17.0880   -8.5680 N.am   78  TYR78      -0.1960
    108  CA         4.9740   17.4150   -9.8790 C.3    78  TYR78       0.1771
    109  C          5.9570   16.3900  -10.4260 C.2    78  TYR78       0.2620
    110  O          5.9600   16.0980  -11.6110 O.2    78  TYR78      -0.2715
    111  CB         5.6520   18.7820   -9.8270 C.3    78  TYR78       0.0574
    112  CG         6.1890   19.2280  -11.1710 C.ar   78  TYR78      -0.0198
    113  CD1        5.3730   19.8630  -12.0880 C.ar   78  TYR78      -0.0009
    114  CD2        7.5240   19.0350  -11.5050 C.ar   78  TYR78      -0.0009
    115  CE1        5.8590   20.2910  -13.3010 C.ar   78  TYR78       0.0417
    116  CE2        8.0220   19.4480  -12.7350 C.ar   78  TYR78       0.0417
    117  CZ         7.1860   20.0700  -13.6220 C.ar   78  TYR78       0.1957
    118  OH         7.6860   20.4750  -14.8250 O.3    78  TYR78      -0.2866
    119  N          6.8000   15.8640   -9.5380 N.am   79  ASN79      -0.1958
    120  CA         7.8870   14.9630   -9.8990 C.3    79  ASN79       0.1819
    121  C          7.5420   13.4810   -9.7850 C.2    79  ASN79       0.2622
    122  O          6.7400   13.0830   -8.9370 O.2    79  ASN79      -0.2715
    123  CB         9.0670   15.2440   -8.9890 C.3    79  ASN79       0.1195
    124  CG         9.5850   16.6500   -9.1510 C.2    79  ASN79       0.2630
    125  OD1       10.2810   16.9520  -10.1110 O.2    79  ASN79      -0.2716
    126  ND2        9.2300   17.5160   -8.2260 N.am   79  ASN79      -0.0877
    127  N          8.1810   12.6740  -10.6190 N.am   80  GLY80      -0.1940
    128  CA         7.9600   11.2320  -10.6250 C.3    80  GLY80       0.2014
    129  C          8.4530   10.5840   -9.3550 C.2    80  GLY80       0.2638
    130  O          9.4270   11.0560   -8.7600 O.2    80  GLY80      -0.2714
    131  N          7.8070    9.4880   -8.9420 N.am   81  GLU81      -0.1977
    132  CA         8.1690    8.8140   -7.6970 C.3    81  GLU81       0.1602
    133  C          9.6010    8.2580   -7.7120 C.2    81  GLU81       0.2287
    134  O         10.1660    8.0030   -6.6500 O.2    81  GLU81      -0.2864
    135  CB         7.1610    7.7020   -7.3540 C.3    81  GLU81       0.0415
    136  CG         7.0020    6.6550   -8.4370 C.3    81  GLU81       0.1163
    137  CD         5.9230    5.6140   -8.1320 C.2    81  GLU81       0.3649
    138  OE1        5.3680    5.6220   -7.0080 O.co2  81  GLU81      -0.2457
    139  OE2        5.6370    4.7860   -9.0380 O.co2  81  GLU81      -0.2457
    140  N         12.2590    9.9130   -9.0650 N.3    83  THR83      -0.1218
    141  CA        13.2250   10.9970   -9.2170 C.3    83  THR83       0.1862
    142  C         13.9260   11.3460   -7.9140 C.2    83  THR83       0.2287
    143  O         13.4250   11.0660   -6.8280 O.2    83  THR83      -0.2866
    144  CB        12.5310   12.2820   -9.7310 C.3    83  THR83       0.1770
    145  OG1       11.5400   12.7160   -8.7740 O.3    83  THR83      -0.2211
    146  CG2       11.7510   12.0250  -11.0410 C.3    83  THR83       0.0375
    147  N         14.1540   14.3120   -6.6990 N.3    85  TYR85      -0.1227
    148  CA        13.3200   15.3280   -6.0280 C.3    85  TYR85       0.1736
    149  C         12.3110   14.7000   -5.0950 C.2    85  TYR85       0.2595
    150  O         12.0950   15.1660   -3.9580 O.2    85  TYR85      -0.2718
    151  CB        12.6410   16.2390   -7.0550 C.3    85  TYR85       0.0548
    152  CG        13.6480   16.9490   -7.9240 C.ar   85  TYR85      -0.0200
    153  CD1       14.4830   17.9250   -7.3860 C.ar   85  TYR85      -0.0009
    154  CD2       13.8190   16.6100   -9.2690 C.ar   85  TYR85      -0.0009
    155  CE1       15.4230   18.5670   -8.1510 C.ar   85  TYR85       0.0417
    156  CE2       14.7770   17.2590  -10.0500 C.ar   85  TYR85       0.0417
    157  CZ        15.5670   18.2390   -9.4800 C.ar   85  TYR85       0.1957
    158  OH        16.5270   18.8920  -10.2130 O.3    85  TYR85      -0.2866
    159  N         11.7070   13.6120   -5.5570 N.am   86  TYR86      -0.1976
    160  CA        10.7330   12.8900   -4.7440 C.3    86  TYR86       0.1639
    161  C         11.4420   12.3520   -3.4890 C.2    86  TYR86       0.2290
    162  O         10.9470   12.4790   -2.3840 O.2    86  TYR86      -0.2864
    163  CB        10.1020   11.7630   -5.5800 C.3    86  TYR86       0.0560
    164  CG         8.7250   11.2920   -5.1610 C.ar   86  TYR86      -0.0198
    165  CD1        8.5710   10.3660   -4.1470 C.ar   86  TYR86      -0.0009
    166  CD2        7.5740   11.7430   -5.8200 C.ar   86  TYR86      -0.0009
    167  CE1        7.3250    9.9100   -3.7860 C.ar   86  TYR86       0.0417
    168  CE2        6.3240   11.2890   -5.4630 C.ar   86  TYR86       0.0417
    169  CZ         6.2020   10.3710   -4.4570 C.ar   86  TYR86       0.1957
    170  OH         4.9470    9.8970   -4.1200 O.3    86  TYR86      -0.2866
@<TRIPOS>BOND
     1    55    56    1
     2    55    52    1
     3    58    56   ar
     4    51    52    1
     5    56    57   ar
     6    52    53    1
     7    81    80   ar
     8    81    79   ar
     9    42    41   ar
    10    38    37    2
    11    80    78   ar
    12    35    36    1
    13    43    41   ar
    14    36    37    1
    15    36    39    1
    16    37    44   am
    17    46    45    1
    18    46    47    2
    19    41    40    1
    20    79    77   ar
    21    44    45    1
    22    53    54    2
    23    53    59   am
    24    45    48    1
    25    40    39    1
    26    78    76   ar
    27   118   117    1
    28    59    60    1
    29    77    76   ar
    30    49    48    1
    31    48    50    1
    32    76    75    1
    33   117   115   ar
    34   117   116   ar
    35   115   113   ar
    36    60    61    1
    37    60    63    1
    38    71    72    1
    39   116   114   ar
    40    61    62    2
    41    75    72    1
    42    63    64    1
    43    72    73    1
    44   113   112   ar
    45   110   109    2
    46   114   112   ar
    47   112   111    1
    48   146   144    1
    49    64    65   ar
    50    64    66   ar
    51    73    74    2
    52    33    32    1
    53   128   127    1
    54   128   129    1
    55   127   121   am
    56    65    67   ar
    57   109   108    1
    58   109   119   am
    59   158   157    1
    60   125   124    2
    61    66    68   ar
    62   156   157   ar
    63   156   154   ar
    64    31    30    2
    65   120   121    1
    66   120   119    1
    67   120   123    1
    68   108   111    1
    69   108   107    1
    70    30    29    1
    71   121   122    2
    72   144   141    1
    73   144   145    1
    74   157   155   ar
    75   102   101    2
    76   129   131   am
    77   129   130    2
    78   154   152   ar
    79    67    69   ar
    80   141   140    1
    81   141   142    1
    82   124   123    1
    83   124   126   am
    84    32    29    1
    85    32    34    1
    86   139   137   ar
    87   131   132    1
    88    29    28    1
    89   106   105    1
    90    68    69   ar
    91   107   101   am
    92   101   100    1
    93   136   137    1
    94   136   135    1
    95    69    70    1
    96   155   153   ar
    97   137   138   ar
    98   152   153   ar
    99   152   151    1
   100   142   143    2
   101   104   105    1
   102   104   103    1
   103   133   132    1
   104   133   134    2
   105   132   135    1
   106   151   148    1
   107   100   103    1
   108   100    99    1
   109   147   148    1
   110    91    90    2
   111    85    84    2
   112    99    90   am
   113   148   149    1
   114    90    89    1
   115   166   168   ar
   116   166   164   ar
   117   163   164    1
   118   163   160    1
   119   159   149   am
   120   159   160    1
   121   168   169   ar
   122    84    83    1
   123    84    88   am
   124    26    25    2
   125   164   165   ar
   126   149   150    2
   127    83    82    1
   128    83    86    1
   129    89    88    1
   130    89    92    1
   131    87    86    1
   132   160   161    1
   133     4     3    2
   134    22    21    2
   135     5     2    1
   136     5     6    1
   137   169   170    1
   138   169   167   ar
   139    23    24    1
   140    23    20    1
   141    21    20    1
   142     2     3    1
   143     2     1    1
   144   165   167   ar
   145    25    24    1
   146    25    27   am
   147     6     7    1
   148     3     8   am
   149    92    93    1
   150    20    19    1
   151   161   162    2
   152     1     7    1
   153    93    94    1
   154    16    14   ar
   155    16    18   ar
   156     8     9    1
   157    14    13   ar
   158    18    17   ar
   159     9    10    1
   160     9    12    1
   161    94    95    1
   162    10    11    2
   163    13    12    1
   164    13    15   ar
   165    17    15   ar
   166    95    96    2
   167    96    97    1
   168    96    98    1
