@<TRIPOS>MOLECULE
tmp/1e6qA06.pdb
 124 123 0 0 0
SMALL
GASTEIGER

@<TRIPOS>ATOM
      1  N         54.4730  120.5740   60.7680 N.3    37  GLN37      -0.1245
      2  CA        54.2270  121.9470   60.4060 C.3    37  GLN37       0.1566
      3  C         54.2620  122.8750   61.5700 C.2    37  GLN37       0.2260
      4  O         54.5160  124.0760   61.3490 O.2    37  GLN37      -0.2867
      5  CB        52.9460  122.0500   59.6140 C.3    37  GLN37       0.0367
      6  CG        53.0500  121.2720   58.3300 C.3    37  GLN37       0.0905
      7  CD        51.7890  121.3570   57.5300 C.2    37  GLN37       0.2608
      8  OE1       50.8440  120.5520   57.6470 O.2    37  GLN37      -0.2717
      9  NE2       51.7030  122.3640   56.6620 N.am   37  GLN37      -0.0878
     10  N         50.8190  112.0750   59.5990 N.3   139  HIS139     -0.1226
     11  CA        50.7640  113.1990   58.6790 C.3   139  HIS139      0.1752
     12  C         52.1280  113.3460   58.0190 C.2   139  HIS139      0.2596
     13  O         52.7010  114.4610   58.0040 O.2   139  HIS139     -0.2718
     14  CB        50.2190  114.4470   59.3200 C.3   139  HIS139      0.0759
     15  CG        49.6110  115.4840   58.4430 C.ar  139  HIS139      0.0818
     16  ND1       48.2970  115.9120   58.6250 N.ar  139  HIS139     -0.2268
     17  CD2       50.1510  116.2460   57.4650 C.ar  139  HIS139      0.1154
     18  CE1       48.0670  116.8970   57.7680 C.ar  139  HIS139      0.1986
     19  NE2       49.1680  117.1000   57.0640 N.ar  139  HIS139     -0.2212
     20  N         52.6200  112.2790   57.4390 N.am  140  TRP140     -0.1976
     21  CA        53.6980  112.2200   56.4780 C.3   140  TRP140      0.1640
     22  C         55.0950  112.1600   57.1080 C.2   140  TRP140      0.2290
     23  O         56.0780  111.9620   56.3610 O.2   140  TRP140     -0.2864
     24  CB        53.6430  113.3520   55.4440 C.3   140  TRP140      0.0576
     25  CG        52.3440  113.4020   54.7150 C.ar  140  TRP140      0.0006
     26  CD1       51.3590  112.4680   54.6200 C.ar  140  TRP140      0.0946
     27  CD2       51.9010  114.4990   53.9050 C.ar  140  TRP140      0.0152
     28  NE1       50.3340  112.8890   53.8040 N.ar  140  TRP140     -0.2442
     29  CE2       50.6580  114.1610   53.3460 C.ar  140  TRP140      0.0810
     30  CE3       52.4520  115.7590   53.6100 C.ar  140  TRP140      0.0012
     31  CZ2       49.9530  115.0130   52.5390 C.ar  140  TRP140      0.0191
     32  CZ3       51.7240  116.5920   52.7820 C.ar  140  TRP140      0.0001
     33  CH2       50.5020  116.2140   52.2290 C.ar  140  TRP140      0.0015
     34  N         47.2120  110.7460   56.6330 N.3   184  ASN184     -0.1225
     35  CA        46.7010  111.9450   55.9940 C.3   184  ASN184      0.1785
     36  C         46.7290  111.8370   54.4870 C.2   184  ASN184      0.2597
     37  O         47.7930  111.5440   53.9240 O.2   184  ASN184     -0.2718
     38  CB        47.5440  113.1570   56.4150 C.3   184  ASN184      0.1169
     39  CG        46.9500  114.4100   55.8040 C.2   184  ASN184      0.2627
     40  OD1       45.7950  114.7400   56.0720 O.2   184  ASN184     -0.2716
     41  ND2       47.7700  115.1310   55.0400 N.am  184  ASN184     -0.0877
     42  N         45.6410  112.1080   53.7980 N.am  185  GLN185     -0.1979
     43  CA        45.5390  112.2040   52.3490 C.3   185  GLN185      0.1601
     44  C         46.2720  111.0930   51.6350 C.2   185  GLN185      0.2287
     45  O         47.3640  111.2580   51.1130 O.2   185  GLN185     -0.2864
     46  CB        46.0840  113.5600   51.8670 C.3   185  GLN185      0.0394
     47  CG        45.2410  114.7050   52.4390 C.3   185  GLN185      0.0908
     48  CD        45.5810  116.0680   51.8870 C.2   185  GLN185      0.2608
     49  OE1       44.8390  117.0280   52.1870 O.2   185  GLN185     -0.2717
     50  NE2       46.6310  116.2030   51.0980 N.am  185  GLN185     -0.0878
     51  N         42.3590  113.1500   50.4410 N.3   255  ILE255     -0.1245
     52  CA        42.2750  114.4250   49.7380 C.3   255  ILE255      0.1561
     53  C         41.1910  114.2370   48.7120 C.2   255  ILE255      0.2260
     54  O         41.1980  113.2930   47.9100 O.2   255  ILE255     -0.2867
     55  CB        43.6180  114.8990   49.1530 C.3   255  ILE255      0.0252
     56  CG1       43.3800  116.2190   48.3770 C.3   255  ILE255      0.0019
     57  CG2       44.2790  113.8560   48.2910 C.3   255  ILE255      0.0019
     58  CD1       42.9560  117.4150   49.1880 C.3   255  ILE255      0.0001
     59  N         39.8800  121.1660   49.0600 N.3   328  TYR328     -0.1241
     60  CA        40.3880  122.5090   48.7690 C.3   328  TYR328      0.1605
     61  C         39.8940  123.0190   47.4430 C.2   328  TYR328      0.2264
     62  O         39.5270  124.2220   47.3840 O.2   328  TYR328     -0.2867
     63  CB        41.9240  122.4980   48.7710 C.3   328  TYR328      0.0534
     64  CG        42.5080  122.2710   50.1490 C.ar  328  TYR328     -0.0201
     65  CD1       42.7580  123.3580   50.9700 C.ar  328  TYR328     -0.0009
     66  CD2       42.8090  121.0000   50.6240 C.ar  328  TYR328     -0.0009
     67  CE1       43.3280  123.1700   52.2050 C.ar  328  TYR328      0.0417
     68  CE2       43.3570  120.8330   51.8630 C.ar  328  TYR328      0.0417
     69  CZ        43.6330  121.9340   52.6740 C.ar  328  TYR328      0.1957
     70  OH        44.2530  121.8220   53.8920 O.3   328  TYR328     -0.2866
     71  N         40.0240  119.0850   56.6550 N.3   407  GLU407     -0.1245
     72  CA        40.7890  120.2550   56.2480 C.3   407  GLU407      0.1567
     73  C         39.9780  120.9520   55.1670 C.2   407  GLU407      0.2260
     74  O         39.4050  120.3380   54.2810 O.2   407  GLU407     -0.2867
     75  CB        42.1460  119.9480   55.5820 C.3   407  GLU407      0.0388
     76  CG        43.1100  119.2030   56.4490 C.3   407  GLU407      0.1160
     77  CD        44.4540  118.9240   55.8870 C.2   407  GLU407      0.3649
     78  OE1       44.8990  119.5170   54.8780 O.co2 407  GLU407     -0.2457
     79  OE2       45.1330  118.0300   56.5140 O.co2 407  GLU407     -0.2457
     80  N         41.6170  124.3930   57.8090 N.3   455  TRP455     -0.1298
     81  CA        43.0550  124.4550   57.7520 C.3   455  TRP455      0.1291
     82  C         43.3820  125.9630   57.7630 C.3   455  TRP455      0.2013
     83  O         42.8700  126.5790   56.8540 O.3   455  TRP455     -0.2188
     84  CB        43.6030  123.7850   56.5310 C.3   455  TRP455      0.0497
     85  CG        45.1030  123.6970   56.5560 C.ar  455  TRP455     -0.0001
     86  CD1       46.0070  124.5640   56.0410 C.ar  455  TRP455      0.0946
     87  CD2       45.8340  122.7410   57.3200 C.ar  455  TRP455      0.0152
     88  NE1       47.2730  124.1630   56.3730 N.ar  455  TRP455     -0.2442
     89  CE2       47.1900  123.0500   57.1890 C.ar  455  TRP455      0.0810
     90  CE3       45.4780  121.6270   58.0980 C.ar  455  TRP455      0.0012
     91  CZ2       48.2010  122.2900   57.7710 C.ar  455  TRP455      0.0191
     92  CZ3       46.4720  120.8670   58.6750 C.ar  455  TRP455      0.0001
     93  CH2       47.8320  121.2060   58.5210 C.ar  455  TRP455      0.0015
     94  N         54.4630  125.5500   55.6730 N.3   462  GLU462     -0.1231
     95  CA        53.6370  124.9560   54.6480 C.3   462  GLU462      0.1699
     96  C         54.5090  124.0280   53.8020 C.2   462  GLU462      0.2592
     97  O         55.4830  124.4400   53.2090 O.2   462  GLU462     -0.2718
     98  CB        53.0440  126.0510   53.7620 C.3   462  GLU462      0.0402
     99  CG        52.4260  125.5340   52.4810 C.3   462  GLU462      0.1161
    100  CD        51.2960  124.5830   52.5950 C.2   462  GLU462      0.3649
    101  OE1       50.8830  124.2390   53.7310 O.co2 462  GLU462     -0.2457
    102  OE2       50.8140  124.1740   51.5080 O.co2 462  GLU462     -0.2457
    103  N         54.1160  122.7550   53.7030 N.am  463  PHE463     -0.1976
    104  CA        54.8570  121.8240   52.8570 C.3   463  PHE463      0.1639
    105  C         55.0580  122.5040   51.5000 C.2   463  PHE463      0.2290
    106  O         54.1150  123.0600   50.9220 O.2   463  PHE463     -0.2864
    107  CB        54.1070  120.5190   52.7150 C.3   463  PHE463      0.0560
    108  CG        53.9810  119.7140   53.9720 C.ar  463  PHE463     -0.0200
    109  CD1       55.1060  119.1300   54.5490 C.ar  463  PHE463     -0.0042
    110  CD2       52.7400  119.5130   54.6130 C.ar  463  PHE463     -0.0042
    111  CE1       54.9990  118.3490   55.6620 C.ar  463  PHE463     -0.0003
    112  CE2       52.6530  118.7520   55.7510 C.ar  463  PHE463     -0.0003
    113  CZ        53.7800  118.1330   56.2820 C.ar  463  PHE463     -0.0000
    114  N         48.4840  130.0910   56.0050 N.3   471  PHE471     -0.1241
    115  CA        47.1880  129.4440   55.9980 C.3   471  PHE471      0.1605
    116  C         46.4050  129.6650   57.2660 C.2   471  PHE471      0.2264
    117  O         45.2680  129.2280   57.3470 O.2   471  PHE471     -0.2867
    118  CB        47.2860  127.9270   55.7610 C.3   471  PHE471      0.0534
    119  CG        47.3790  127.5040   54.3560 C.ar  471  PHE471     -0.0203
    120  CD1       48.5750  127.3410   53.6880 C.ar  471  PHE471     -0.0042
    121  CD2       46.2040  127.2140   53.6650 C.ar  471  PHE471     -0.0042
    122  CE1       48.6010  126.8560   52.3950 C.ar  471  PHE471     -0.0003
    123  CE2       46.2350  126.7540   52.3740 C.ar  471  PHE471     -0.0003
    124  CZ        47.4450  126.5850   51.7230 C.ar  471  PHE471     -0.0000
@<TRIPOS>BOND
     1    62    61    2
     2    61    60    1
     3    54    53    2
     4    57    55    1
     5    56    55    1
     6    56    58    1
     7    53    52    1
     8    60    63    1
     9    60    59    1
    10    63    64    1
    11    55    52    1
    12    52    51    1
    13    64    66   ar
    14    64    65   ar
    15    66    68   ar
    16   106   105    2
    17    65    67   ar
    18    50    48   am
    19    45    44    2
    20   105   104    1
    21   102   100   ar
    22    44    43    1
    23   124   123   ar
    24   124   122   ar
    25    68    69   ar
    26    46    43    1
    27    46    47    1
    28    48    49    2
    29    48    47    1
    30    67    69   ar
    31    33    31   ar
    32    33    32   ar
    33    43    42    1
    34   123   121   ar
    35   122   120   ar
    36    99   100    1
    37    99    98    1
    38    31    29   ar
    39   100   101   ar
    40    69    70    1
    41   107   104    1
    42   107   108    1
    43    32    30   ar
    44   104   103    1
    45    97    96    2
    46    29    28   ar
    47    29    27   ar
    48    30    27   ar
    49   121   119   ar
    50   120   119   ar
    51   103    96   am
    52    98    95    1
    53    42    36   am
    54    96    95    1
    55    28    26   ar
    56    27    25   ar
    57    37    36    2
    58   108   109   ar
    59   108   110   ar
    60    74    73    2
    61   119   118    1
    62    36    35    1
    63   109   111   ar
    64   110   112   ar
    65    26    25   ar
    66    95    94    1
    67    25    24    1
    68    78    77   ar
    69    41    39   am
    70    73    72    1
    71    24    21    1
    72    75    72    1
    73    75    76    1
    74   111   113   ar
    75   112   113   ar
    76   118   115    1
    77    39    40    2
    78    39    38    1
    79    77    76    1
    80    77    79   ar
    81    35    38    1
    82    35    34    1
    83   115   114    1
    84   115   116    1
    85    86    88   ar
    86    86    85   ar
    87    72    71    1
    88    23    22    2
    89    88    89   ar
    90    21    22    1
    91    21    20    1
    92    84    85    1
    93    84    81    1
    94    85    87   ar
    95     9     7   am
    96    83    82    1
    97    19    17   ar
    98    19    18   ar
    99    89    87   ar
   100    89    91   ar
   101   116   117    2
   102    87    90   ar
   103    20    12   am
   104    17    15   ar
   105     7     8    2
   106     7     6    1
   107    81    82    1
   108    81    80    1
   109    18    16   ar
   110    91    93   ar
   111    13    12    2
   112    12    11    1
   113    90    92   ar
   114     6     5    1
   115    15    16   ar
   116    15    14    1
   117    93    92   ar
   118    11    14    1
   119    11    10    1
   120     5     2    1
   121     2     1    1
   122     2     3    1
   123     4     3    2
