@<TRIPOS>MOLECULE
tmp/1e6rA00.pdb
 155 155 0 0 0
SMALL
GASTEIGER

@<TRIPOS>ATOM
      1  N         14.8090   43.3040  110.2740 N.3    10  PHE10      -0.1241
      2  CA        13.8450   42.5600  109.4970 C.3    10  PHE10       0.1605
      3  C         13.1400   41.4840  110.3180 C.2    10  PHE10       0.2264
      4  O         13.7740   40.6370  110.9580 O.2    10  PHE10      -0.2867
      5  CB        14.5280   41.9190  108.2950 C.3    10  PHE10       0.0534
      6  CG        13.6130   41.0660  107.4670 C.ar   10  PHE10      -0.0203
      7  CD1       12.5590   41.6340  106.7650 C.ar   10  PHE10      -0.0042
      8  CD2       13.7900   39.6840  107.4090 C.ar   10  PHE10      -0.0042
      9  CE1       11.6920   40.8390  106.0160 C.ar   10  PHE10      -0.0003
     10  CE2       12.9240   38.8800  106.6590 C.ar   10  PHE10      -0.0003
     11  CZ        11.8730   39.4620  105.9610 C.ar   10  PHE10      -0.0000
     12  N          9.8820   38.9650  109.5240 N.3    12  PRO12      -0.2116
     13  CA         8.8700   38.4660  108.5800 C.3    12  PRO12       0.1372
     14  C          7.4390   38.5140  109.1380 C.2    12  PRO12       0.2244
     15  O          7.2260   38.3900  110.3500 O.2    12  PRO12      -0.2868
     16  CB         9.3200   37.0290  108.3150 C.3    12  PRO12       0.0268
     17  CG        10.7880   37.0690  108.5750 C.3    12  PRO12       0.0207
     18  CD        10.8940   37.9330  109.7990 C.3    12  PRO12       0.0892
     19  N          9.9680   44.8440  106.4220 N.3    49  PHE49      -0.1241
     20  CA         9.7810   45.7910  105.3260 C.3    49  PHE49       0.1605
     21  C          8.3120   46.1520  105.2090 C.2    49  PHE49       0.2264
     22  O          7.4410   45.3660  105.5750 O.2    49  PHE49      -0.2867
     23  CB        10.1440   45.1600  103.9740 C.3    49  PHE49       0.0534
     24  CG        11.6060   45.1300  103.6750 C.ar   49  PHE49      -0.0203
     25  CD1       12.3270   46.3140  103.5410 C.ar   49  PHE49      -0.0042
     26  CD2       12.2680   43.9120  103.5210 C.ar   49  PHE49      -0.0042
     27  CE1       13.6890   46.2850  103.2590 C.ar   49  PHE49      -0.0003
     28  CE2       13.6190   43.8710  103.2430 C.ar   49  PHE49      -0.0003
     29  CZ        14.3360   45.0650  103.1100 C.ar   49  PHE49      -0.0000
     30  N         10.0360   48.3950  100.7940 N.3    93  GLY93      -0.1210
     31  CA        10.6660   47.7190   99.6820 C.3    93  GLY93       0.1956
     32  C         11.3420   46.4140  100.0140 C.2    93  GLY93       0.2612
     33  O         10.7600   45.5360  100.6570 O.2    93  GLY93      -0.2717
     34  N         12.5860   46.2870   99.5710 N.am   94  GLY94      -0.1942
     35  CA        13.3180   45.0570   99.7940 C.3    94  GLY94       0.2014
     36  C         13.3070   44.2980   98.4800 C.2    94  GLY94       0.2639
     37  O         12.4610   44.5560   97.6250 O.2    94  GLY94      -0.2714
     38  N         14.2290   43.3590   98.3160 N.am   95  TRP95      -0.1959
     39  CA        14.3210   42.5990   97.0790 C.3    95  TRP95       0.1771
     40  C         13.0480   41.8550   96.6920 C.2    95  TRP95       0.2620
     41  O         12.5720   41.9420   95.5590 O.2    95  TRP95      -0.2715
     42  CB        15.4840   41.6040   97.1560 C.3    95  TRP95       0.0590
     43  CG        15.6110   40.8000   95.9090 C.ar   95  TRP95       0.0006
     44  CD1       15.0890   39.5590   95.6760 C.ar   95  TRP95       0.0946
     45  CD2       16.2240   41.2150   94.6820 C.ar   95  TRP95       0.0152
     46  NE1       15.3340   39.1750   94.3750 N.ar   95  TRP95      -0.2442
     47  CE2       16.0300   40.1730   93.7420 C.ar   95  TRP95       0.0810
     48  CE3       16.9180   42.3650   94.2830 C.ar   95  TRP95       0.0012
     49  CZ2       16.5050   40.2450   92.4290 C.ar   95  TRP95       0.0191
     50  CZ3       17.3950   42.4360   92.9660 C.ar   95  TRP95       0.0001
     51  CH2       17.1830   41.3760   92.0590 C.ar   95  TRP95       0.0015
     52  N         12.5040   41.1130   97.6390 N.am   96  TYR96      -0.1960
     53  CA        11.3050   40.3360   97.3840 C.3    96  TYR96       0.1771
     54  C         10.1250   41.1410   96.8420 C.2    96  TYR96       0.2619
     55  O          9.4470   40.6970   95.9130 O.2    96  TYR96      -0.2715
     56  CB        10.8730   39.6130   98.6560 C.3    96  TYR96       0.0574
     57  CG         9.6490   38.7710   98.4480 C.ar   96  TYR96      -0.0198
     58  CD1        9.7130   37.5780   97.7240 C.ar   96  TYR96      -0.0009
     59  CD2        8.4050   39.1940   98.9260 C.ar   96  TYR96      -0.0009
     60  CE1        8.5620   36.8280   97.4770 C.ar   96  TYR96       0.0417
     61  CE2        7.2540   38.4590   98.6840 C.ar   96  TYR96       0.0417
     62  CZ         7.3340   37.2780   97.9570 C.ar   96  TYR96       0.1957
     63  OH         6.1760   36.5660   97.6990 O.3    96  TYR96      -0.2866
     64  N          9.8670   42.3140   97.4110 N.am   97  TYR97      -0.1974
     65  CA         8.7370   43.1100   96.9500 C.3    97  TYR97       0.1639
     66  C          9.0000   43.9640   95.7160 C.2    97  TYR97       0.2290
     67  O          8.2070   43.9520   94.7680 O.2    97  TYR97      -0.2864
     68  CB         8.2250   44.0540   98.0470 C.3    97  TYR97       0.0560
     69  CG         7.6880   43.4130   99.3100 C.ar   97  TYR97      -0.0198
     70  CD1        7.0030   42.1980   99.2790 C.ar   97  TYR97      -0.0009
     71  CD2        7.8350   44.0530  100.5410 C.ar   97  TYR97      -0.0009
     72  CE1        6.4760   41.6350  100.4520 C.ar   97  TYR97       0.0417
     73  CE2        7.3150   43.5080  101.7160 C.ar   97  TYR97       0.0417
     74  CZ         6.6370   42.3010  101.6720 C.ar   97  TYR97       0.1957
     75  OH         6.1300   41.7740  102.8490 O.3    97  TYR97      -0.2866
     76  N         25.4940   38.7600  107.7780 N.3   290  TYR290     -0.1241
     77  CA        25.2830   37.3860  107.3240 C.3   290  TYR290      0.1605
     78  C         26.3550   36.9720  106.3060 C.2   290  TYR290      0.2264
     79  O         26.9760   37.8230  105.6590 O.2   290  TYR290     -0.2867
     80  CB        23.8900   37.2500  106.6850 C.3   290  TYR290      0.0534
     81  CG        23.7410   38.1200  105.4630 C.ar  290  TYR290     -0.0201
     82  CD1       24.1430   37.6570  104.2090 C.ar  290  TYR290     -0.0009
     83  CD2       23.3100   39.4500  105.5740 C.ar  290  TYR290     -0.0009
     84  CE1       24.1350   38.4980  103.0960 C.ar  290  TYR290      0.0417
     85  CE2       23.2930   40.2960  104.4720 C.ar  290  TYR290      0.0417
     86  CZ        23.7140   39.8170  103.2360 C.ar  290  TYR290      0.1957
     87  OH        23.7620   40.6590  102.1500 O.3   290  TYR290     -0.2866
     88  N         27.5760   34.2590  102.9570 N.3   292  ARG292     -0.1245
     89  CA        27.0140   33.5430  101.8130 C.3   292  ARG292      0.1563
     90  C         27.8500   32.2940  101.5790 C.2   292  ARG292      0.2260
     91  O         29.0770   32.3640  101.4970 O.2   292  ARG292     -0.2867
     92  CB        26.9690   34.4390  100.5690 C.3   292  ARG292      0.0307
     93  CG        25.8090   35.4460  100.6290 C.3   292  ARG292      0.0489
     94  CD        25.6580   36.2640   99.3580 C.3   292  ARG292      0.2205
     95  NE        24.5760   37.2470   99.4650 N.pl3 292  ARG292     -0.0865
     96  CZ        23.2810   36.9440   99.5110 C.cat 292  ARG292      0.5346
     97  NH1       22.8970   35.6730   99.4550 N.pl3 292  ARG292      0.1354
     98  NH2       22.3690   37.9060   99.6250 N.pl3 292  ARG292      0.1354
     99  N         15.2200   27.8640  107.6570 N.3   332  ASP332     -0.1239
    100  CA        14.8830   28.8050  106.5810 C.3   332  ASP332      0.1674
    101  C         14.9300   28.1640  105.2010 C.2   332  ASP332      0.2266
    102  O         14.6800   28.8220  104.1890 O.2   332  ASP332     -0.2867
    103  CB        15.7970   30.0410  106.6080 C.3   332  ASP332      0.1410
    104  CG        15.6860   30.8230  107.9060 C.2   332  ASP332      0.3668
    105  OD1       14.5660   30.8980  108.4570 O.co2 332  ASP332     -0.2456
    106  OD2       16.7110   31.3690  108.3730 O.co2 332  ASP332     -0.2456
    107  N         17.4010   27.0680  103.1660 N.3   334  ASP334     -0.1239
    108  CA        18.3590   27.6130  102.2070 C.3   334  ASP334      0.1674
    109  C         19.7320   27.5020  102.8360 C.2   334  ASP334      0.2266
    110  O         20.0180   28.1600  103.8380 O.2   334  ASP334     -0.2867
    111  CB        18.0800   29.0830  101.9060 C.3   334  ASP334      0.1410
    112  CG        18.7730   29.5560  100.6310 C.2   334  ASP334      0.3668
    113  OD1       19.9230   29.1200  100.3590 O.co2 334  ASP334     -0.2456
    114  OD2       18.1650   30.3700   99.9030 O.co2 334  ASP334     -0.2456
    115  N         22.8940   30.7810  102.7960 N.3   337  ILE337     -0.1245
    116  CA        23.0080   31.9490  103.6710 C.3   337  ILE337      0.1561
    117  C         22.9130   31.5610  105.1300 C.2   337  ILE337      0.2260
    118  O         22.1490   30.6690  105.4980 O.2   337  ILE337     -0.2867
    119  CB        21.9030   32.9800  103.4270 C.3   337  ILE337      0.0252
    120  CG1       20.5740   32.2530  103.2300 C.3   337  ILE337      0.0019
    121  CG2       22.2790   33.8870  102.2680 C.3   337  ILE337      0.0019
    122  CD1       19.3590   33.1660  103.2060 C.3   337  ILE337      0.0001
    123  N         22.7100   44.9760  107.4820 N.3   401  TRP401     -0.1227
    124  CA        21.5640   44.1130  107.2920 C.3   401  TRP401      0.1737
    125  C         21.8930   42.7220  107.8210 C.2   401  TRP401      0.2595
    126  O         22.6850   41.9970  107.2140 O.2   401  TRP401     -0.2718
    127  CB        21.1940   44.0320  105.8050 C.3   401  TRP401      0.0564
    128  CG        20.0760   43.0720  105.5480 C.ar  401  TRP401      0.0003
    129  CD1       20.1680   41.7070  105.4280 C.ar  401  TRP401      0.0946
    130  CD2       18.6810   43.3800  105.5460 C.ar  401  TRP401      0.0152
    131  NE1       18.9100   41.1510  105.3660 N.ar  401  TRP401     -0.2442
    132  CE2       17.9810   42.1580  105.4370 C.ar  401  TRP401      0.0810
    133  CE3       17.9530   44.5730  105.6330 C.ar  401  TRP401      0.0012
    134  CZ2       16.5850   42.0980  105.4160 C.ar  401  TRP401      0.0191
    135  CZ3       16.5630   44.5130  105.6130 C.ar  401  TRP401      0.0001
    136  CH2       15.8970   43.2820  105.5060 C.ar  401  TRP401      0.0015
    137  N         21.2550   42.3260  108.9220 N.am  402  HIS402     -0.1975
    138  CA        20.3440   43.1870  109.6710 C.3   402  HIS402      0.1656
    139  C         20.4950   42.8180  111.1480 C.2   402  HIS402      0.2291
    140  O         21.0420   41.7600  111.4600 O.2   402  HIS402     -0.2864
    141  CB        18.8950   43.0070  109.1820 C.3   402  HIS402      0.0771
    142  CG        18.2940   41.6720  109.4970 C.ar  402  HIS402      0.0820
    143  ND1       17.5150   41.4490  110.6140 N.ar  402  HIS402     -0.2267
    144  CD2       18.3240   40.4980  108.8220 C.ar  402  HIS402      0.1154
    145  CE1       17.0890   40.1980  110.6100 C.ar  402  HIS402      0.1986
    146  NE2       17.5650   39.5990  109.5340 N.ar  402  HIS402     -0.2212
    147  N         20.5580   39.2840  112.8520 N.3   405  GLN405     -0.1245
    148  CA        21.5500   38.2730  112.5100 C.3   405  GLN405      0.1566
    149  C         22.7850   38.3210  113.3980 C.2   405  GLN405      0.2260
    150  O         23.6460   37.4410  113.3200 O.2   405  GLN405     -0.2867
    151  CB        21.9500   38.4170  111.0450 C.3   405  GLN405      0.0367
    152  CG        20.7550   38.2900  110.1150 C.3   405  GLN405      0.0905
    153  CD        21.0900   38.6250  108.6880 C.2   405  GLN405      0.2608
    154  OE1       21.6910   39.6660  108.4120 O.2   405  GLN405     -0.2717
    155  NE2       20.6930   37.7560  107.7660 N.am  405  GLN405     -0.0878
@<TRIPOS>BOND
     1    51    49   ar
     2    51    50   ar
     3    49    47   ar
     4    50    48   ar
     5    47    46   ar
     6    47    45   ar
     7    48    45   ar
     8    46    44   ar
     9    45    43   ar
    10    67    66    2
    11    41    40    2
    12    44    43   ar
    13    66    65    1
    14    43    42    1
    15    55    54    2
    16    40    39    1
    17    40    52   am
    18    54    53    1
    19    54    64   am
    20    65    64    1
    21    65    68    1
    22    39    42    1
    23    39    38    1
    24    53    52    1
    25    53    56    1
    26    60    58   ar
    27    60    62   ar
    28    37    36    2
    29    63    62    1
    30    58    57   ar
    31    62    61   ar
    32    68    69    1
    33    38    36   am
    34    57    56    1
    35    57    59   ar
    36    36    35    1
    37    61    59   ar
    38    70    69   ar
    39    70    72   ar
    40    69    71   ar
    41    94    95    1
    42    94    93    1
    43    97    96    1
    44    95    96    2
    45    96    98    1
    46    34    35    1
    47    34    32   am
    48    31    32    1
    49    31    30    1
    50   114   112   ar
    51    32    33    2
    52   113   112   ar
    53    72    74   ar
    54    71    73   ar
    55    92    93    1
    56    92    89    1
    57   112   111    1
    58    91    90    2
    59    90    89    1
    60    74    73   ar
    61    74    75    1
    62    89    88    1
    63   111   108    1
    64    87    86    1
    65   108   109    1
    66   108   107    1
    67   121   119    1
    68   115   116    1
    69   109   110    2
    70    84    86   ar
    71    84    82   ar
    72    29    28   ar
    73    29    27   ar
    74   122   120    1
    75   120   119    1
    76    86    85   ar
    77    28    26   ar
    78    27    25   ar
    79   119   116    1
    80    26    24   ar
    81    25    24   ar
    82   116   117    1
    83    24    23    1
    84    23    20    1
    85   102   101    2
    86    82    81   ar
    87    85    83   ar
    88   117   118    2
    89   101   100    1
    90    21    20    1
    91    21    22    2
    92    20    19    1
    93   131   129   ar
    94   131   132   ar
    95   134   132   ar
    96   134   136   ar
    97   129   128   ar
    98   132   130   ar
    99    81    83   ar
   100    81    80    1
   101   136   135   ar
   102   130   128   ar
   103   130   133   ar
   104   128   127    1
   105   135   133   ar
   106    79    78    2
   107   127   124    1
   108    11     9   ar
   109    11    10   ar
   110     9     7   ar
   111    78    77    1
   112   100   103    1
   113   100    99    1
   114   103   104    1
   115    10     8   ar
   116    80    77    1
   117     7     6   ar
   118   126   125    2
   119   124   123    1
   120   124   125    1
   121    77    76    1
   122     8     6   ar
   123     6     5    1
   124   155   153   am
   125   125   137   am
   126   104   106   ar
   127   104   105   ar
   128     5     2    1
   129    16    17    1
   130    16    13    1
   131   154   153    2
   132    17    18    1
   133    13    14    1
   134    13    12    1
   135   153   152    1
   136   144   142   ar
   137   144   146   ar
   138   137   138    1
   139    14    15    2
   140   141   142    1
   141   141   138    1
   142     2     1    1
   143     2     3    1
   144   142   143   ar
   145    12    18    1
   146   146   145   ar
   147   138   139    1
   148   152   151    1
   149     3     4    2
   150   145   143   ar
   151   151   148    1
   152   139   140    2
   153   148   147    1
   154   148   149    1
   155   150   149    2
