@<TRIPOS>MOLECULE
tmp/1e6rA01.pdb
 148 145 0 0 0
SMALL
GASTEIGER

@<TRIPOS>ATOM
      1  N         19.2460   47.8880  110.1190 N.3     8  TYR8       -0.1241
      2  CA        17.9590   47.4700  109.6000 C.3     8  TYR8        0.1605
      3  C         17.5100   46.3280  110.4910 C.2     8  TYR8        0.2264
      4  O         18.3310   45.5510  110.9990 O.2     8  TYR8       -0.2867
      5  CB        18.0590   46.9890  108.1430 C.3     8  TYR8        0.0534
      6  CG        18.0440   48.1120  107.1330 C.ar    8  TYR8       -0.0201
      7  CD1       19.1940   48.8510  106.8600 C.ar    8  TYR8       -0.0009
      8  CD2       16.8670   48.4650  106.4790 C.ar    8  TYR8       -0.0009
      9  CE1       19.1720   49.9210  105.9580 C.ar    8  TYR8        0.0417
     10  CE2       16.8280   49.5430  105.5680 C.ar    8  TYR8        0.0417
     11  CZ        17.9870   50.2620  105.3160 C.ar    8  TYR8        0.1957
     12  OH        17.9560   51.3170  104.4340 O.3     8  TYR8       -0.2866
     13  N          9.9680   44.8440  106.4220 N.3    49  PHE49      -0.1241
     14  CA         9.7810   45.7910  105.3260 C.3    49  PHE49       0.1605
     15  C          8.3120   46.1520  105.2090 C.2    49  PHE49       0.2264
     16  O          7.4410   45.3660  105.5750 O.2    49  PHE49      -0.2867
     17  CB        10.1440   45.1600  103.9740 C.3    49  PHE49       0.0534
     18  CG        11.6060   45.1300  103.6750 C.ar   49  PHE49      -0.0203
     19  CD1       12.3270   46.3140  103.5410 C.ar   49  PHE49      -0.0042
     20  CD2       12.2680   43.9120  103.5210 C.ar   49  PHE49      -0.0042
     21  CE1       13.6890   46.2850  103.2590 C.ar   49  PHE49      -0.0003
     22  CE2       13.6190   43.8710  103.2430 C.ar   49  PHE49      -0.0003
     23  CZ        14.3360   45.0650  103.1100 C.ar   49  PHE49      -0.0000
     24  N         12.5860   46.2870   99.5710 N.3    94  GLY94      -0.1210
     25  CA        13.3180   45.0570   99.7940 C.3    94  GLY94       0.1956
     26  C         13.3070   44.2980   98.4800 C.2    94  GLY94       0.2612
     27  O         12.4610   44.5560   97.6250 O.2    94  GLY94      -0.2717
     28  N         14.2290   43.3590   98.3160 N.am   95  TRP95      -0.1962
     29  CA        14.3210   42.5990   97.0790 C.3    95  TRP95       0.1771
     30  C         13.0480   41.8550   96.6920 C.2    95  TRP95       0.2619
     31  O         12.5720   41.9420   95.5590 O.2    95  TRP95      -0.2715
     32  CB        15.4840   41.6040   97.1560 C.3    95  TRP95       0.0590
     33  CG        15.6110   40.8000   95.9090 C.ar   95  TRP95       0.0006
     34  CD1       15.0890   39.5590   95.6760 C.ar   95  TRP95       0.0946
     35  CD2       16.2240   41.2150   94.6820 C.ar   95  TRP95       0.0152
     36  NE1       15.3340   39.1750   94.3750 N.ar   95  TRP95      -0.2442
     37  CE2       16.0300   40.1730   93.7420 C.ar   95  TRP95       0.0810
     38  CE3       16.9180   42.3650   94.2830 C.ar   95  TRP95       0.0012
     39  CZ2       16.5050   40.2450   92.4290 C.ar   95  TRP95       0.0191
     40  CZ3       17.3950   42.4360   92.9660 C.ar   95  TRP95       0.0001
     41  CH2       17.1830   41.3760   92.0590 C.ar   95  TRP95       0.0015
     42  N         12.5040   41.1130   97.6390 N.am   96  TYR96      -0.1974
     43  CA        11.3050   40.3360   97.3840 C.3    96  TYR96       0.1639
     44  C         10.1250   41.1410   96.8420 C.2    96  TYR96       0.2290
     45  O          9.4470   40.6970   95.9130 O.2    96  TYR96      -0.2864
     46  CB        10.8730   39.6130   98.6560 C.3    96  TYR96       0.0560
     47  CG         9.6490   38.7710   98.4480 C.ar   96  TYR96      -0.0198
     48  CD1        9.7130   37.5780   97.7240 C.ar   96  TYR96      -0.0009
     49  CD2        8.4050   39.1940   98.9260 C.ar   96  TYR96      -0.0009
     50  CE1        8.5620   36.8280   97.4770 C.ar   96  TYR96       0.0417
     51  CE2        7.2540   38.4590   98.6840 C.ar   96  TYR96       0.0417
     52  CZ         7.3340   37.2780   97.9570 C.ar   96  TYR96       0.1957
     53  OH         6.1760   36.5660   97.6990 O.3    96  TYR96      -0.2866
     54  N         13.4690   51.4130   99.8940 N.3   140  ASP140     -0.1239
     55  CA        14.3640   50.3910   99.4010 C.3   140  ASP140      0.1674
     56  C         13.8300   49.7110   98.1660 C.2   140  ASP140      0.2266
     57  O         13.4500   48.5390   98.2090 O.2   140  ASP140     -0.2867
     58  CB        14.6410   49.3380  100.4650 C.3   140  ASP140      0.1410
     59  CG        15.5350   48.2260   99.9420 C.2   140  ASP140      0.3668
     60  OD1       16.3680   48.5120   99.0560 O.co2 140  ASP140     -0.2456
     61  OD2       15.4150   47.0770  100.4100 O.co2 140  ASP140     -0.2456
     62  N         14.6120   48.1480   94.7920 N.3   142  GLU142     -0.1245
     63  CA        15.7360   47.5430   94.0900 C.3   142  GLU142      0.1567
     64  C         15.3720   47.0060   92.6970 C.2   142  GLU142      0.2260
     65  O         15.0720   45.8250   92.5550 O.2   142  GLU142     -0.2867
     66  CB        16.3040   46.4170   94.9530 C.3   142  GLU142      0.0388
     67  CG        16.8020   46.8960   96.3040 C.3   142  GLU142      0.1160
     68  CD        17.1180   45.7660   97.2740 C.2   142  GLU142      0.3649
     69  OE1       17.4650   44.6480   96.8260 O.co2 142  GLU142     -0.2457
     70  OE2       17.0430   46.0020   98.4960 O.co2 142  GLU142     -0.2457
     71  N         17.9620   52.8010  100.3680 N.3   182  ALA182     -0.1245
     72  CA        18.9950   51.7820  100.3380 C.3   182  ALA182      0.1562
     73  C         19.4410   51.8600   98.8810 C.2   182  ALA182      0.2260
     74  O         18.6560   51.5890   97.9670 O.2   182  ALA182     -0.2867
     75  CB        18.4070   50.4200  100.6530 C.3   182  ALA182      0.0290
     76  N         24.2160   49.4850   99.7050 N.3   210  MET210     -0.1245
     77  CA        24.1640   48.0750  100.0380 C.3   210  MET210      0.1570
     78  C         25.4130   47.4690   99.4340 C.2   210  MET210      0.2261
     79  O         25.3670   46.6690   98.4920 O.2   210  MET210     -0.2867
     80  CB        22.8880   47.4430   99.4810 C.3   210  MET210      0.0387
     81  CG        21.6010   47.9950  100.1320 C.3   210  MET210      0.0595
     82  SD        20.0900   47.2360   99.4590 S.3   210  MET210     -0.1393
     83  CE        19.9780   48.0790   97.8360 C.3   210  MET210      0.0692
     84  N         27.3530   45.0710   99.5980 N.3   212  TYR212     -0.1227
     85  CA        27.5610   43.6520   99.8980 C.3   212  TYR212      0.1736
     86  C         26.8280   42.8480   98.8310 C.2   212  TYR212      0.2595
     87  O         26.2850   43.4250   97.8900 O.2   212  TYR212     -0.2718
     88  CB        27.0800   43.2690  101.3010 C.3   212  TYR212      0.0548
     89  CG        25.7910   43.9190  101.7170 C.ar  212  TYR212     -0.0200
     90  CD1       24.5940   43.6200  101.0750 C.ar  212  TYR212     -0.0009
     91  CD2       25.7780   44.8620  102.7410 C.ar  212  TYR212     -0.0009
     92  CE1       23.4090   44.2490  101.4440 C.ar  212  TYR212      0.0417
     93  CE2       24.6080   45.5000  103.1200 C.ar  212  TYR212      0.0417
     94  CZ        23.4250   45.1920  102.4720 C.ar  212  TYR212      0.1957
     95  OH        22.2680   45.8210  102.8650 O.3   212  TYR212     -0.2866
     96  N         26.8020   41.5280   98.9690 N.am  213  ASP213     -0.1974
     97  CA        26.1850   40.6850   97.9550 C.3   213  ASP213      0.1709
     98  C         26.9510   40.9410   96.6520 C.2   213  ASP213      0.2293
     99  O         26.4170   40.7600   95.5580 O.2   213  ASP213     -0.2864
    100  CB        24.6950   41.0170   97.7400 C.3   213  ASP213      0.1436
    101  CG        23.8290   40.6810   98.9460 C.2   213  ASP213      0.3671
    102  OD1       24.2370   39.8230   99.7560 O.co2 213  ASP213     -0.2456
    103  OD2       22.7270   41.2650   99.0740 O.co2 213  ASP213     -0.2456
    104  N         25.4940   38.7600  107.7780 N.3   290  TYR290     -0.1241
    105  CA        25.2830   37.3860  107.3240 C.3   290  TYR290      0.1605
    106  C         26.3550   36.9720  106.3060 C.2   290  TYR290      0.2264
    107  O         26.9760   37.8230  105.6590 O.2   290  TYR290     -0.2867
    108  CB        23.8900   37.2500  106.6850 C.3   290  TYR290      0.0534
    109  CG        23.7410   38.1200  105.4630 C.ar  290  TYR290     -0.0201
    110  CD1       24.1430   37.6570  104.2090 C.ar  290  TYR290     -0.0009
    111  CD2       23.3100   39.4500  105.5740 C.ar  290  TYR290     -0.0009
    112  CE1       24.1350   38.4980  103.0960 C.ar  290  TYR290      0.0417
    113  CE2       23.2930   40.2960  104.4720 C.ar  290  TYR290      0.0417
    114  CZ        23.7140   39.8170  103.2360 C.ar  290  TYR290      0.1957
    115  OH        23.7620   40.6590  102.1500 O.3   290  TYR290     -0.2866
    116  N         27.5760   34.2590  102.9570 N.3   292  ARG292     -0.1245
    117  CA        27.0140   33.5430  101.8130 C.3   292  ARG292      0.1563
    118  C         27.8500   32.2940  101.5790 C.2   292  ARG292      0.2260
    119  O         29.0770   32.3640  101.4970 O.2   292  ARG292     -0.2867
    120  CB        26.9690   34.4390  100.5690 C.3   292  ARG292      0.0307
    121  CG        25.8090   35.4460  100.6290 C.3   292  ARG292      0.0489
    122  CD        25.6580   36.2640   99.3580 C.3   292  ARG292      0.2205
    123  NE        24.5760   37.2470   99.4650 N.pl3 292  ARG292     -0.0865
    124  CZ        23.2810   36.9440   99.5110 C.cat 292  ARG292      0.5346
    125  NH1       22.8970   35.6730   99.4550 N.pl3 292  ARG292      0.1354
    126  NH2       22.3690   37.9060   99.6250 N.pl3 292  ARG292      0.1354
    127  N         25.8710   51.1840  107.9780 N.3   399  MET399     -0.1245
    128  CA        24.5330   50.6320  107.9330 C.3   399  MET399      0.1570
    129  C         24.7390   49.1310  107.8210 C.2   399  MET399      0.2261
    130  O         25.7650   48.6790  107.2940 O.2   399  MET399     -0.2867
    131  CB        23.8010   51.1750  106.6970 C.3   399  MET399      0.0387
    132  CG        22.5580   50.4100  106.2820 C.3   399  MET399      0.0595
    133  SD        22.8880   48.8980  105.3340 S.3   399  MET399     -0.1393
    134  CE        22.7580   49.4840  103.6380 C.3   399  MET399      0.0692
    135  N         22.7100   44.9760  107.4820 N.3   401  TRP401     -0.1241
    136  CA        21.5640   44.1130  107.2920 C.3   401  TRP401      0.1605
    137  C         21.8930   42.7220  107.8210 C.2   401  TRP401      0.2264
    138  O         22.6850   41.9970  107.2140 O.2   401  TRP401     -0.2867
    139  CB        21.1940   44.0320  105.8050 C.3   401  TRP401      0.0550
    140  CG        20.0760   43.0720  105.5480 C.ar  401  TRP401      0.0003
    141  CD1       20.1680   41.7070  105.4280 C.ar  401  TRP401      0.0946
    142  CD2       18.6810   43.3800  105.5460 C.ar  401  TRP401      0.0152
    143  NE1       18.9100   41.1510  105.3660 N.ar  401  TRP401     -0.2442
    144  CE2       17.9810   42.1580  105.4370 C.ar  401  TRP401      0.0810
    145  CE3       17.9530   44.5730  105.6330 C.ar  401  TRP401      0.0012
    146  CZ2       16.5850   42.0980  105.4160 C.ar  401  TRP401      0.0191
    147  CZ3       16.5630   44.5130  105.6130 C.ar  401  TRP401      0.0001
    148  CH2       15.8970   43.2820  105.5060 C.ar  401  TRP401      0.0015
@<TRIPOS>BOND
     1    41    39   ar
     2    41    40   ar
     3    39    37   ar
     4    65    64    2
     5    64    63    1
     6    40    38   ar
     7    37    36   ar
     8    37    35   ar
     9    63    62    1
    10    63    66    1
    11    38    35   ar
    12    36    34   ar
    13    35    33   ar
    14    66    67    1
    15    99    98    2
    16    31    30    2
    17    34    33   ar
    18    33    32    1
    19    45    44    2
    20    67    68    1
    21    98    97    1
    22    30    29    1
    23    30    42   am
    24    69    68   ar
    25    44    43    1
    26    29    32    1
    27    29    28    1
    28    68    70   ar
    29    43    42    1
    30    43    46    1
    31    50    48   ar
    32    50    52   ar
    33    27    26    2
    34    53    52    1
    35    48    47   ar
    36   100    97    1
    37   100   101    1
    38    83    82    1
    39    87    86    2
    40    97    96    1
    41    52    51   ar
    42    74    73    2
    43    56    57    2
    44    56    55    1
    45    28    26   am
    46    47    46    1
    47    47    49   ar
    48    26    25    1
    49    79    78    2
    50    51    49   ar
    51    86    96   am
    52    86    85    1
    53    73    72    1
    54   101   103   ar
    55   101   102   ar
    56    60    59   ar
    57   122   123    1
    58   122   121    1
    59    55    54    1
    60    55    58    1
    61    78    77    1
    62   125   124    1
    63    82    81    1
    64   123   124    2
    65    80    77    1
    66    80    81    1
    67   124   126    1
    68    24    25    1
    69    84    85    1
    70    76    77    1
    71    85    88    1
    72    59    61   ar
    73    59    58    1
    74    72    71    1
    75    72    75    1
    76   120   121    1
    77   120   117    1
    78    90    92   ar
    79    90    89   ar
    80    88    89    1
    81    92    94   ar
    82   119   118    2
    83   118   117    1
    84    89    91   ar
    85   117   116    1
    86   115   114    1
    87    94    95    1
    88    94    93   ar
    89    91    93   ar
    90   112   114   ar
    91   112   110   ar
    92    23    22   ar
    93    23    21   ar
    94   114   113   ar
    95    22    20   ar
    96    21    19   ar
    97    20    18   ar
    98    19    18   ar
    99   134   133    1
   100    18    17    1
   101    17    14    1
   102   110   109   ar
   103    12    11    1
   104   113   111   ar
   105    15    14    1
   106    15    16    2
   107    11    10   ar
   108    11     9   ar
   109    14    13    1
   110   133   132    1
   111   143   141   ar
   112   143   144   ar
   113   146   144   ar
   114   146   148   ar
   115   141   140   ar
   116   144   142   ar
   117   109   111   ar
   118   109   108    1
   119   148   147   ar
   120   142   140   ar
   121   142   145   ar
   122   140   139    1
   123    10     8   ar
   124   147   145   ar
   125   107   106    2
   126   139   136    1
   127     9     7   ar
   128   132   131    1
   129   106   105    1
   130     8     6   ar
   131   108   105    1
   132   131   128    1
   133     7     6   ar
   134     6     5    1
   135   138   137    2
   136   136   135    1
   137   136   137    1
   138   130   129    2
   139   105   104    1
   140   129   128    1
   141   128   127    1
   142     5     2    1
   143     2     1    1
   144     2     3    1
   145     3     4    2
