@<TRIPOS>MOLECULE
tmp/1e6uA01.pdb
 68 65 0 0 0
SMALL
GASTEIGER

@<TRIPOS>ATOM
      1  N         61.6100   15.6260   19.9110 N.3    66  GLY66      -0.1210
      2  CA        61.3360   17.0450   19.6410 C.3    66  GLY66       0.1956
      3  C         59.8280   17.2590   19.6160 C.2    66  GLY66       0.2612
      4  O         59.0180   16.3570   19.8040 O.2    66  GLY66      -0.2717
      5  N         59.4750   18.4950   19.2780 N.am   67  GLY67      -0.1942
      6  CA        58.1020   18.9200   19.1650 C.3    67  GLY67       0.2014
      7  C         57.5690   18.8840   17.7550 C.2    67  GLY67       0.2639
      8  O         58.0860   18.1740   16.8840 O.2    67  GLY67      -0.2714
      9  N         56.4570   19.5930   17.5160 N.am   68  ILE68      -0.1963
     10  CA        55.7770   19.4920   16.2440 C.3    68  ILE68       0.1727
     11  C         56.6390   20.0070   15.0940 C.2    68  ILE68       0.2616
     12  O         56.6230   19.3460   14.0380 O.2    68  ILE68      -0.2715
     13  CB        54.4330   20.1780   16.3090 C.3    68  ILE68       0.0290
     14  CG1       53.4800   19.4720   17.2860 C.3    68  ILE68       0.0022
     15  CG2       53.7920   20.4110   14.9600 C.3    68  ILE68       0.0023
     16  CD1       52.3200   20.4130   17.5730 C.3    68  ILE68       0.0001
     17  N         57.2980   21.1430   15.2410 N.am   69  VAL69      -0.1963
     18  CA        58.1010   21.6490   14.1200 C.3    69  VAL69       0.1727
     19  C         59.2240   20.6760   13.8450 C.2    69  VAL69       0.2616
     20  O         59.4610   20.3190   12.6840 O.2    69  VAL69      -0.2715
     21  CB        58.6310   23.0560   14.3890 C.3    69  VAL69       0.0290
     22  CG1       59.6190   23.4770   13.2940 C.3    69  VAL69       0.0023
     23  CG2       57.4560   24.0260   14.4900 C.3    69  VAL69       0.0023
     24  N         59.9050   20.2000   14.8930 N.am   70  ALA70      -0.1977
     25  CA        61.0520   19.3240   14.6730 C.3    70  ALA70       0.1597
     26  C         60.6300   18.0330   13.9890 C.2    70  ALA70       0.2287
     27  O         61.2920   17.6060   13.0490 O.2    70  ALA70      -0.2864
     28  CB        61.7060   19.0200   16.0150 C.3    70  ALA70       0.0319
     29  N         62.3720   17.3840   10.3230 N.3    74  TYR74      -0.1241
     30  CA        63.4860   16.4630   10.2350 C.3    74  TYR74       0.1605
     31  C         63.0200   15.0020   10.3170 C.2    74  TYR74       0.2264
     32  O         63.5120   14.2380   11.1560 O.2    74  TYR74      -0.2867
     33  CB        64.5100   16.7250   11.3520 C.3    74  TYR74       0.0534
     34  CG        64.9780   18.1750   11.4070 C.ar   74  TYR74      -0.0201
     35  CD1       65.9290   18.6260   10.5020 C.ar   74  TYR74      -0.0009
     36  CD2       64.4150   19.0940   12.2960 C.ar   74  TYR74      -0.0009
     37  CE1       66.3280   19.9560   10.5030 C.ar   74  TYR74       0.0417
     38  CE2       64.8270   20.4170   12.2950 C.ar   74  TYR74       0.0417
     39  CZ        65.8280   20.8220   11.4390 C.ar   74  TYR74       0.1957
     40  OH        66.2360   22.1390   11.4150 O.3    74  TYR74      -0.2866
     41  N         62.4150   21.7190   28.2030 N.3   171  ASN171     -0.1240
     42  CA        62.7800   22.9100   27.4170 C.3   171  ASN171      0.1653
     43  C         61.8010   24.0460   27.6600 C.2   171  ASN171      0.2266
     44  O         60.7210   24.0670   27.0540 O.2   171  ASN171     -0.2867
     45  CB        62.7920   22.5360   25.9210 C.3   171  ASN171      0.1155
     46  CG        63.0350   23.7450   25.0470 C.2   171  ASN171      0.2627
     47  OD1       62.7270   23.7510   23.8520 O.2   171  ASN171     -0.2716
     48  ND2       63.5610   24.8410   25.5940 N.am  171  ASN171     -0.0877
     49  N         58.1230   29.0550   22.6920 N.3   175  SER175     -0.1202
     50  CA        57.6420   28.5100   21.4150 C.3   175  SER175      0.2020
     51  C         57.6460   26.9970   21.3950 C.2   175  SER175      0.2619
     52  O         57.2370   26.4080   20.3640 O.2   175  SER175     -0.2717
     53  CB        58.5490   29.0250   20.2900 C.3   175  SER175      0.2103
     54  OG        58.2170   30.4460   20.2070 O.3   175  SER175     -0.2182
     55  N         57.9760   26.3570   22.5280 N.am  176  ASN176     -0.1960
     56  CA        57.8840   24.9030   22.6320 C.3   176  ASN176      0.1819
     57  C         56.4740   24.4780   22.2770 C.2   176  ASN176      0.2622
     58  O         55.5050   25.0520   22.7980 O.2   176  ASN176     -0.2715
     59  CB        58.3450   24.4030   24.0020 C.3   176  ASN176      0.1195
     60  CG        58.5610   22.9160   24.1200 C.2   176  ASN176      0.2630
     61  OD1       58.0650   22.1060   23.3210 O.2   176  ASN176     -0.2716
     62  ND2       59.2540   22.4390   25.1610 N.am  176  ASN176     -0.0877
     63  N         56.3180   23.4350   21.4510 N.am  177  SER177     -0.1950
     64  CA        54.9730   22.9610   21.1740 C.3   177  SER177      0.1924
     65  C         54.3980   22.1720   22.3500 C.2   177  SER177      0.2314
     66  O         53.1780   21.9550   22.3860 O.2   177  SER177     -0.2863
     67  CB        54.9350   22.1940   19.8550 C.3   177  SER177      0.2116
     68  OG        55.7580   21.0500   19.9860 O.3   177  SER177     -0.2180
@<TRIPOS>BOND
     1    30    31    1
     2    30    29    1
     3    30    33    1
     4    31    32    2
     5    35    37   ar
     6    35    34   ar
     7    37    39   ar
     8    33    34    1
     9    34    36   ar
    10    40    39    1
    11    39    38   ar
    12    38    36   ar
    13    20    19    2
    14    27    26    2
    15    22    21    1
    16    19    18    1
    17    19    24   am
    18    26    25    1
    19    12    11    2
    20    18    21    1
    21    18    17    1
    22    21    23    1
    23    25    24    1
    24    25    28    1
    25    15    13    1
    26    11    17   am
    27    11    10    1
    28    10    13    1
    29    10     9    1
    30    13    14    1
    31     8     7    2
    32    14    16    1
    33     9     7   am
    34     7     6    1
    35     6     5    1
    36     5     3   am
    37     3     2    1
    38     3     4    2
    39     2     1    1
    40    67    68    1
    41    67    64    1
    42    54    53    1
    43    53    50    1
    44    52    51    2
    45    64    63    1
    46    64    65    1
    47    51    50    1
    48    51    55   am
    49    50    49    1
    50    63    57   am
    51    57    56    1
    52    57    58    2
    53    65    66    2
    54    55    56    1
    55    56    59    1
    56    61    60    2
    57    47    46    2
    58    59    60    1
    59    60    62   am
    60    46    48   am
    61    46    45    1
    62    45    42    1
    63    44    43    2
    64    42    43    1
    65    42    41    1
