@<TRIPOS>MOLECULE
tmp/1e6vD00.pdb
 122 121 0 0 0
SMALL
GASTEIGER

@<TRIPOS>ATOM
      1  N         33.0460  -38.1110  117.9670 N.3    58  VAL58      -0.1245
      2  CA        33.6450  -39.3330  118.4850 C.3    58  VAL58       0.1561
      3  C         33.8740  -39.3140  119.9940 C.2    58  VAL58       0.2260
      4  O         34.4260  -38.3580  120.5430 O.2    58  VAL58      -0.2867
      5  CB        34.9650  -39.6260  117.7440 C.3    58  VAL58       0.0252
      6  CG1       35.7860  -40.6900  118.4620 C.3    58  VAL58       0.0019
      7  CG2       34.6380  -40.0730  116.3480 C.3    58  VAL58       0.0019
      8  N         36.0920  -40.2240  122.6340 N.3    60  LEU60      -0.1245
      9  CA        37.4740  -40.5980  122.9090 C.3    60  LEU60       0.1561
     10  C         37.5630  -41.4950  124.1400 C.2    60  LEU60       0.2260
     11  O         36.7540  -41.3810  125.0610 O.2    60  LEU60      -0.2867
     12  CB        38.3300  -39.3470  123.1170 C.3    60  LEU60       0.0270
     13  CG        38.4690  -38.3960  121.9250 C.3    60  LEU60       0.0019
     14  CD1       39.3420  -37.2170  122.3130 C.3    60  LEU60       0.0001
     15  CD2       39.0690  -39.1290  120.7370 C.3    60  LEU60       0.0001
     16  N         47.2590  -27.2710  110.6080 N.3   322  GLY322     -0.1210
     17  CA        46.5750  -26.7310  111.7670 C.3   322  GLY322      0.1956
     18  C         45.4970  -27.6320  112.3360 C.2   322  GLY322      0.2612
     19  O         45.1820  -28.6860  111.7800 O.2   322  GLY322     -0.2717
     20  N         44.9140  -27.1880  113.4450 N.am  323  GLY323     -0.1942
     21  CA        43.9130  -27.9760  114.1370 C.3   323  GLY323      0.2014
     22  C         44.4940  -28.7370  115.3100 C.2   323  GLY323      0.2639
     23  O         45.4530  -28.2860  115.9400 O.2   323  GLY323     -0.2714
     24  N         43.8900  -29.8820  115.6130 N.am  324  VAL324     -0.1963
     25  CA        44.3970  -30.8040  116.6270 C.3   324  VAL324      0.1727
     26  C         45.8780  -31.1040  116.3810 C.2   324  VAL324      0.2617
     27  O         46.6940  -31.0470  117.3040 O.2   324  VAL324     -0.2715
     28  CB        43.5810  -32.1240  116.6250 C.3   324  VAL324      0.0290
     29  CG1       44.3230  -33.2210  117.3730 C.3   324  VAL324      0.0023
     30  CG2       42.2230  -31.8900  117.2590 C.3   324  VAL324      0.0023
     31  N         46.2150  -31.4180  115.1320 N.am  325  GLY325     -0.1940
     32  CA        47.6060  -31.4280  114.7200 C.3   325  GLY325      0.2014
     33  C         48.2690  -32.7890  114.6770 C.2   325  GLY325      0.2639
     34  O         47.6080  -33.8160  114.5140 O.2   325  GLY325     -0.2714
     35  N         49.5920  -32.7840  114.8300 N.am  326  PHE326     -0.1959
     36  CA        50.4180  -33.9660  114.6030 C.3   326  PHE326      0.1771
     37  C         51.3310  -34.2490  115.7970 C.2   326  PHE326      0.2620
     38  O         52.5340  -34.4560  115.6300 O.2   326  PHE326     -0.2715
     39  CB        51.2740  -33.7760  113.3420 C.3   326  PHE326      0.0574
     40  CG        50.4780  -33.4780  112.0960 C.ar  326  PHE326     -0.0200
     41  CD1       49.2320  -34.0590  111.8860 C.ar  326  PHE326     -0.0042
     42  CD2       50.9980  -32.6480  111.1090 C.ar  326  PHE326     -0.0042
     43  CE1       48.5190  -33.8230  110.7180 C.ar  326  PHE326     -0.0003
     44  CE2       50.2910  -32.4060  109.9350 C.ar  326  PHE326     -0.0003
     45  CZ        49.0500  -32.9950  109.7400 C.ar  326  PHE326     -0.0000
     46  N         50.7460  -34.2820  116.9920 N.am  327  THR327     -0.1937
     47  CA        51.4930  -34.5510  118.2200 C.3   327  THR327      0.2028
     48  C         52.1670  -35.9200  118.1690 C.2   327  THR327      0.2642
     49  O         53.3940  -36.0210  118.2120 O.2   327  THR327     -0.2714
     50  CB        50.5660  -34.5140  119.4580 C.3   327  THR327      0.1808
     51  OG1       49.9660  -33.2180  119.5750 O.3   327  THR327     -0.2208
     52  CG2       51.3480  -34.8210  120.7270 C.3   327  THR327      0.0379
     53  N         51.3510  -36.9550  117.9870 N.am  328  GLN328     -0.1963
     54  CA        51.7950  -38.3380  118.0980 C.3   328  GLN328      0.1733
     55  C         52.5090  -38.8690  116.8570 C.2   328  GLN328      0.2616
     56  O         53.1880  -39.8950  116.9200 O.2   328  GLN328     -0.2715
     57  CB        50.6080  -39.2330  118.4670 C.3   328  GLN328      0.0408
     58  CG        49.9760  -38.8610  119.8030 C.3   328  GLN328      0.0908
     59  CD        48.5470  -39.3390  119.9350 C.2   328  GLN328      0.2608
     60  OE1       48.2250  -40.1170  120.8310 O.2   328  GLN328     -0.2717
     61  NE2       47.6690  -38.8330  119.0760 N.am  328  GLN328     -0.0878
     62  N         52.3820  -38.1490  115.7440 N.am  329  TYR329     -0.1974
     63  CA        53.2450  -38.3630  114.5840 C.3   329  TYR329      0.1639
     64  C         54.6910  -38.0710  114.9740 C.2   329  TYR329      0.2290
     65  O         55.6150  -38.7040  114.4710 O.2   329  TYR329     -0.2864
     66  CB        52.8360  -37.4420  113.4280 C.3   329  TYR329      0.0560
     67  CG        51.7790  -38.0140  112.5060 C.ar  329  TYR329     -0.0198
     68  CD1       51.8530  -39.3320  112.0630 C.ar  329  TYR329     -0.0009
     69  CD2       50.7300  -37.2220  112.0390 C.ar  329  TYR329     -0.0009
     70  CE1       50.9110  -39.8480  111.1730 C.ar  329  TYR329      0.0417
     71  CE2       49.7850  -37.7290  111.1520 C.ar  329  TYR329      0.0417
     72  CZ        49.8830  -39.0390  110.7200 C.ar  329  TYR329      0.1957
     73  OH        48.9640  -39.5320  109.8260 O.3   329  TYR329     -0.2866
     74  N         50.2150  -46.8920  116.9840 N.3   392  PHE392     -0.1227
     75  CA        49.0590  -47.4450  116.2850 C.3   392  PHE392      0.1736
     76  C         48.9820  -47.0740  114.8060 C.2   392  PHE392      0.2596
     77  O         48.3930  -47.8050  114.0090 O.2   392  PHE392     -0.2718
     78  CB        47.7610  -47.0360  116.9980 C.3   392  PHE392      0.0547
     79  CG        47.6970  -45.5760  117.3710 C.ar  392  PHE392     -0.0202
     80  CD1       47.1090  -44.6500  116.5150 C.ar  392  PHE392     -0.0042
     81  CD2       48.1710  -45.1400  118.6040 C.ar  392  PHE392     -0.0042
     82  CE1       46.9940  -43.3110  116.8840 C.ar  392  PHE392     -0.0003
     83  CE2       48.0610  -43.8070  118.9810 C.ar  392  PHE392     -0.0003
     84  CZ        47.4710  -42.8910  118.1220 C.ar  392  PHE392     -0.0000
     85  N         49.5450  -45.9250  114.4460 N.am  393  GLY393     -0.1942
     86  CA        49.6590  -45.5700  113.0430 C.3   393  GLY393      0.2014
     87  C         50.8740  -46.2030  112.3930 C.2   393  GLY393      0.2639
     88  O         51.8980  -46.4170  113.0450 O.2   393  GLY393     -0.2714
     89  N         50.7410  -46.5440  111.1150 N.am  394  GLY394     -0.1939
     90  CA        51.8500  -47.1190  110.3750 C.3   394  GLY394      0.2014
     91  C         52.9110  -46.0990  110.0150 C.2   394  GLY394      0.2640
     92  O         54.0890  -46.4370  109.9000 O.2   394  GLY394     -0.2714
     93  N         52.4890  -44.8460  109.8490 N.am  395  SER395     -0.1935
     94  CA        53.3910  -43.7450  109.5260 C.3   395  SER395      0.2055
     95  C         54.5170  -43.6360  110.5430 C.2   395  SER395      0.2642
     96  O         55.6920  -43.5650  110.1870 O.2   395  SER395     -0.2714
     97  CB        52.6160  -42.4270  109.4930 C.3   395  SER395      0.2130
     98  OG        51.5760  -42.4650  108.5340 O.3   395  SER395     -0.2179
     99  N         54.1340  -43.6050  111.8110 N.am  396  GLN396     -0.1976
    100  CA        55.0730  -43.4970  112.9100 C.3   396  GLN396      0.1601
    101  C         55.8550  -44.7970  113.1180 C.2   396  GLN396      0.2287
    102  O         56.9860  -44.7860  113.6070 O.2   396  GLN396     -0.2864
    103  CB        54.3020  -43.1100  114.1680 C.3   396  GLN396      0.0394
    104  CG        53.2750  -44.1190  114.6550 C.3   396  GLN396      0.0908
    105  CD        52.3390  -43.5340  115.7000 C.2   396  GLN396      0.2608
    106  OE1       52.6520  -42.5320  116.3420 O.2   396  GLN396     -0.2717
    107  NE2       51.1820  -44.1570  115.8700 N.am  396  GLN396     -0.0878
    108  N         52.3070  -46.1120  105.4540 N.3   438  GLY438     -0.1210
    109  CA        51.8350  -45.0610  106.3340 C.3   438  GLY438      0.1956
    110  C         50.4440  -44.6020  105.9540 C.2   438  GLY438      0.2611
    111  O         49.6400  -45.3920  105.4590 O.2   438  GLY438     -0.2717
    112  N         50.1550  -43.3250  106.1920 N.am  439  PHE439     -0.1976
    113  CA        48.9270  -42.7230  105.6930 C.3   439  PHE439      0.1639
    114  C         48.9880  -42.6210  104.1670 C.2   439  PHE439      0.2290
    115  O         49.9590  -43.0590  103.5510 O.2   439  PHE439     -0.2864
    116  CB        48.7000  -41.3440  106.3380 C.3   439  PHE439      0.0560
    117  CG        49.6390  -40.2740  105.8540 C.ar  439  PHE439     -0.0200
    118  CD1       49.2760  -39.4420  104.8060 C.ar  439  PHE439     -0.0042
    119  CD2       50.8830  -40.0960  106.4460 C.ar  439  PHE439     -0.0042
    120  CE1       50.1340  -38.4580  104.3480 C.ar  439  PHE439     -0.0003
    121  CE2       51.7500  -39.1070  105.9920 C.ar  439  PHE439     -0.0003
    122  CZ        51.3730  -38.2890  104.9420 C.ar  439  PHE439     -0.0000
@<TRIPOS>BOND
     1   115   114    2
     2   114   113    1
     3   120   118   ar
     4   120   122   ar
     5   118   117   ar
     6   122   121   ar
     7   108   109    1
     8   111   110    2
     9   113   112    1
    10   113   116    1
    11   117   116    1
    12   117   119   ar
    13   110   112   am
    14   110   109    1
    15   121   119   ar
    16    98    97    1
    17    97    94    1
    18    94    93    1
    19    94    95    1
    20    45    44   ar
    21    45    43   ar
    22    73    72    1
    23    93    91   am
    24    92    91    2
    25    44    42   ar
    26    91    90    1
    27    96    95    2
    28    90    89    1
    29    95    99   am
    30    16    17    1
    31    43    41   ar
    32    72    71   ar
    33    72    70   ar
    34    42    40   ar
    35    89    87   am
    36    71    69   ar
    37    70    68   ar
    38    17    18    1
    39    19    18    2
    40    99   100    1
    41    41    40   ar
    42    69    67   ar
    43    68    67   ar
    44    40    39    1
    45    18    20   am
    46    87    86    1
    47    87    88    2
    48    67    66    1
    49   100   101    1
    50   100   103    1
    51    86    85    1
    52   101   102    2
    53    39    36    1
    54    66    63    1
    55    20    21    1
    56    77    76    2
    57    21    22    1
    58   103   104    1
    59    85    76   am
    60    65    64    2
    61    34    33    2
    62    63    64    1
    63    63    62    1
    64    36    35    1
    65    36    37    1
    66   104   105    1
    67    33    32    1
    68    33    35   am
    69    32    31    1
    70    76    75    1
    71    31    26   am
    72    22    24   am
    73    22    23    2
    74    24    25    1
    75    38    37    2
    76   105   107   am
    77   105   106    2
    78    62    55   am
    79    37    46   am
    80    75    74    1
    81    75    78    1
    82     7     5    1
    83    26    25    1
    84    26    27    2
    85    80    82   ar
    86    80    79   ar
    87    28    25    1
    88    28    30    1
    89    28    29    1
    90    55    56    2
    91    55    54    1
    92    82    84   ar
    93    46    47    1
    94    78    79    1
    95    79    81   ar
    96     5     6    1
    97     5     2    1
    98     1     2    1
    99    53    54    1
   100    53    48   am
   101    54    57    1
   102    84    83   ar
   103    48    49    2
   104    48    47    1
   105    47    50    1
   106    57    58    1
   107     2     3    1
   108    81    83   ar
   109    61    59   am
   110    50    51    1
   111    50    52    1
   112    58    59    1
   113    59    60    2
   114     3     4    2
   115    15    13    1
   116    13    14    1
   117    13    12    1
   118     8     9    1
   119     9    12    1
   120     9    10    1
   121    10    11    2
