@<TRIPOS>MOLECULE
tmp/1e6vD02.pdb
 115 110 0 0 0
SMALL
GASTEIGER

@<TRIPOS>ATOM
      1  N         66.4090    0.2150  123.4430 N.3   139  GLY139     -0.1210
      2  CA        66.9130    1.3950  124.1270 C.3   139  GLY139      0.1956
      3  C         67.4530    2.4480  123.1750 C.2   139  GLY139      0.2612
      4  O         67.9660    2.1180  122.1060 O.2   139  GLY139     -0.2717
      5  N         67.4090    3.7100  123.6010 N.am  140  ALA140     -0.1965
      6  CA        67.7660    4.8420  122.7470 C.3   140  ALA140      0.1728
      7  C         69.2160    5.2920  122.9230 C.2   140  ALA140      0.2616
      8  O         69.6870    5.4710  124.0470 O.2   140  ALA140     -0.2715
      9  CB        66.8260    6.0040  123.0180 C.3   140  ALA140      0.0334
     10  N         69.8960    5.5400  121.8060 N.am  141  VAL141     -0.1963
     11  CA        71.3060    5.9230  121.8390 C.3   141  VAL141      0.1727
     12  C         71.6390    7.2610  121.1710 C.2   141  VAL141      0.2616
     13  O         72.6800    7.8490  121.4670 O.2   141  VAL141     -0.2715
     14  CB        72.2180    4.8200  121.2220 C.3   141  VAL141      0.0290
     15  CG1       72.2180    3.5820  122.1040 C.3   141  VAL141      0.0023
     16  CG2       71.7600    4.4720  119.8150 C.3   141  VAL141      0.0023
     17  N         70.7660    7.7530  120.2900 N.am  142  VAL142     -0.1963
     18  CA        71.0790    8.9690  119.5330 C.3   142  VAL142      0.1727
     19  C         70.0560   10.1120  119.5900 C.2   142  VAL142      0.2616
     20  O         70.4340   11.2610  119.8050 O.2   142  VAL142     -0.2715
     21  CB        71.4080    8.6400  118.0490 C.3   142  VAL142      0.0290
     22  CG1       71.5750    9.9260  117.2390 C.3   142  VAL142      0.0023
     23  CG2       72.6910    7.8260  117.9740 C.3   142  VAL142      0.0023
     24  N         68.7820    9.8250  119.3530 N.am  143  GLN143     -0.1963
     25  CA        67.7790   10.8860  119.2760 C.3   143  GLN143      0.1733
     26  C         67.1830   11.2710  120.6220 C.2   143  GLN143      0.2616
     27  O         66.8700   10.4060  121.4400 O.2   143  GLN143     -0.2715
     28  CB        66.6530   10.4840  118.3350 C.3   143  GLN143      0.0408
     29  CG        67.0790   10.3740  116.8970 C.3   143  GLN143      0.0908
     30  CD        65.9010   10.3590  115.9640 C.2   143  GLN143      0.2608
     31  OE1       65.6450    9.3650  115.3020 O.2   143  GLN143     -0.2717
     32  NE2       65.1420   11.4470  115.9480 N.am  143  GLN143     -0.0878
     33  N         66.9870   12.5700  120.8270 N.am  144  GLU144     -0.1963
     34  CA        66.2650   13.0570  121.9970 C.3   144  GLU144      0.1733
     35  C         64.7640   12.8170  121.8370 C.2   144  GLU144      0.2616
     36  O         64.2590   12.6880  120.7200 O.2   144  GLU144     -0.2715
     37  CB        66.5550   14.5480  122.2280 C.3   144  GLU144      0.0429
     38  CG        65.5870   15.2710  123.1820 C.3   144  GLU144      0.1163
     39  CD        65.7660   14.8900  124.6480 C.2   144  GLU144      0.3649
     40  OE1       65.9100   15.8010  125.4870 O.co2 144  GLU144     -0.2457
     41  OE2       65.7020   13.6880  124.9750 O.co2 144  GLU144     -0.2457
     42  N         64.0870   12.6670  122.9730 N.am  145  HIS145     -0.1959
     43  CA        62.6550   12.3790  123.0470 C.3   145  HIS145      0.1787
     44  C         62.2510   11.0490  122.4200 C.2   145  HIS145      0.2620
     45  O         61.2140   10.9450  121.7590 O.2   145  HIS145     -0.2715
     46  CB        61.8280   13.5190  122.4390 C.3   145  HIS145      0.0785
     47  CG        60.5080   13.7190  123.1150 C.ar  145  HIS145      0.0821
     48  ND1       59.4630   12.8300  122.9690 N.ar  145  HIS145     -0.2267
     49  CD2       60.1170   14.6040  124.0600 C.ar  145  HIS145      0.1154
     50  CE1       58.4920   13.1540  123.8070 C.ar  145  HIS145      0.1986
     51  NE2       58.8660   14.2260  124.4790 N.ar  145  HIS145     -0.2212
     52  N         63.0260   10.0100  122.7090 N.am  146  MET146     -0.1963
     53  CA        62.7080    8.6730  122.2310 C.3   146  MET146      0.1736
     54  C         61.9590    7.8690  123.2850 C.2   146  MET146      0.2616
     55  O         62.3170    7.8880  124.4650 O.2   146  MET146     -0.2715
     56  CB        63.9840    7.9380  121.8210 C.3   146  MET146      0.0427
     57  CG        64.6270    8.4720  120.5530 C.3   146  MET146      0.0599
     58  SD        63.6030    8.2940  119.0780 S.3   146  MET146     -0.1393
     59  CE        62.7880    9.9000  119.0170 C.3   146  MET146      0.0692
     60  N         60.8560    7.2560  122.8660 N.am  147  VAL147     -0.1977
     61  CA        60.1440    6.2890  123.6960 C.3   147  VAL147      0.1596
     62  C         60.8540    4.9430  123.5940 C.2   147  VAL147      0.2287
     63  O         61.5770    4.6890  122.6310 O.2   147  VAL147     -0.2864
     64  CB        58.6680    6.1350  123.2500 C.3   147  VAL147      0.0276
     65  CG1       58.0620    7.5010  122.9740 C.3   147  VAL147      0.0022
     66  CG2       58.5680    5.2440  122.0210 C.3   147  VAL147      0.0022
     67  N         69.1080   -3.0260  112.2690 N.3   225  MET225     -0.1230
     68  CA        68.7920   -1.6520  112.6350 C.3   225  MET225      0.1702
     69  C         69.5570   -1.2080  113.8760 C.2   225  MET225      0.2592
     70  O         70.2480   -0.1880  113.8550 O.2   225  MET225     -0.2718
     71  CB        67.2820   -1.5030  112.8490 C.3   225  MET225      0.0401
     72  CG        66.6130   -0.5360  111.8840 C.3   225  MET225      0.0596
     73  SD        66.2510   -1.2180  110.2480 S.3   225  MET225     -0.1393
     74  CE        67.8670   -1.6580  109.6080 C.3   225  MET225      0.0692
     75  N         69.5250   -2.0420  114.9110 N.am  226  GLN226     -0.1979
     76  CA        70.1540   -1.7140  116.1850 C.3   226  GLN226      0.1601
     77  C         71.6740   -1.8480  116.1500 C.2   226  GLN226      0.2287
     78  O         72.3780   -1.1840  116.9100 O.2   226  GLN226     -0.2864
     79  CB        69.5710   -2.5880  117.2970 C.3   226  GLN226      0.0394
     80  CG        68.0610   -2.4560  117.4560 C.3   226  GLN226      0.0908
     81  CD        67.5840   -1.0200  117.3400 C.2   226  GLN226      0.2608
     82  OE1       67.2790   -0.5450  116.2480 O.2   226  GLN226     -0.2717
     83  NE2       67.5100   -0.3260  118.4690 N.am  226  GLN226     -0.0878
     84  N         72.6360    1.4620  114.6670 N.3   229  MET229     -0.1245
     85  CA        72.4540    2.4920  115.6870 C.3   229  MET229      0.1570
     86  C         73.6240    2.5160  116.6680 C.2   229  MET229      0.2261
     87  O         74.0740    3.5830  117.0840 O.2   229  MET229     -0.2867
     88  CB        71.1450    2.2680  116.4560 C.3   229  MET229      0.0387
     89  CG        69.8990    2.8350  115.7820 C.3   229  MET229      0.0595
     90  SD        70.1390    4.4810  115.0680 S.3   229  MET229     -0.1393
     91  CE        70.6520    5.4280  116.4800 C.3   229  MET229      0.0692
     92  N         76.9460    3.8810  115.0640 N.3   232  ILE232     -0.1245
     93  CA        76.8020    5.3350  115.0510 C.3   232  ILE232      0.1561
     94  C         77.1740    5.9230  116.4090 C.2   232  ILE232      0.2260
     95  O         78.0050    6.8280  116.4930 O.2   232  ILE232     -0.2867
     96  CB        75.3430    5.7420  114.7000 C.3   232  ILE232      0.0252
     97  CG1       75.0860    5.5320  113.2040 C.3   232  ILE232      0.0019
     98  CG2       75.0820    7.1930  115.0800 C.3   232  ILE232      0.0019
     99  CD1       73.6200    5.5740  112.8140 C.3   232  ILE232      0.0001
    100  N         75.1600   10.6150  112.5050 N.3   239  ALA239     -0.1231
    101  CA        74.0110    9.7350  112.7010 C.3   239  ALA239      0.1694
    102  C         73.1270    9.7250  111.4540 C.2   239  ALA239      0.2592
    103  O         71.9570   10.1050  111.5050 O.2   239  ALA239     -0.2718
    104  CB        73.2090   10.1890  113.9190 C.3   239  ALA239      0.0304
    105  N         73.6920    9.2640  110.3410 N.am  240  GLY240     -0.1957
    106  CA        73.0210    9.3760  109.0600 C.3   240  GLY240      0.1869
    107  C         73.9540    9.9730  108.0240 C.2   240  GLY240      0.2309
    108  O         73.9700   11.1850  107.8100 O.2   240  GLY240     -0.2863
    109  N         76.9680    4.7120  106.2090 N.3   244  VAL244     -0.1245
    110  CA        76.0180    4.0000  107.0560 C.3   244  VAL244      0.1561
    111  C         75.2370    2.9850  106.2230 C.2   244  VAL244      0.2260
    112  O         74.9110    1.9020  106.7050 O.2   244  VAL244     -0.2867
    113  CB        75.0280    4.9760  107.7460 C.3   244  VAL244      0.0252
    114  CG1       73.9930    4.2040  108.5550 C.3   244  VAL244      0.0019
    115  CG2       75.7830    5.9350  108.6520 C.3   244  VAL244      0.0019
@<TRIPOS>BOND
     1   109   110    1
     2   111   112    2
     3   111   110    1
     4   110   113    1
     5   113   114    1
     6   113   115    1
     7   108   107    2
     8   107   106    1
     9   106   105    1
    10    74    73    1
    11    73    72    1
    12   105   102   am
    13   102   103    2
    14   102   101    1
    15    72    71    1
    16    67    68    1
    17   100   101    1
    18    68    71    1
    19    68    69    1
    20   101   104    1
    21    99    97    1
    22    97    96    1
    23    70    69    2
    24    69    75   am
    25    84    85    1
    26    96    93    1
    27    96    98    1
    28    75    76    1
    29    93    92    1
    30    93    94    1
    31    90    89    1
    32    90    91    1
    33    31    30    2
    34    85    88    1
    35    85    86    1
    36    89    88    1
    37    32    30   am
    38    30    29    1
    39    77    76    1
    40    77    78    2
    41    76    79    1
    42    82    81    2
    43    94    95    2
    44    86    87    2
    45    29    28    1
    46    22    21    1
    47    79    80    1
    48    81    80    1
    49    81    83   am
    50    23    21    1
    51    21    18    1
    52    28    25    1
    53    59    58    1
    54    58    57    1
    55    25    24    1
    56    25    26    1
    57    24    19   am
    58    18    19    1
    59    18    17    1
    60    19    20    2
    61    16    14    1
    62    17    12   am
    63    57    56    1
    64    26    33   am
    65    26    27    2
    66    36    35    2
    67    33    34    1
    68    12    13    2
    69    12    11    1
    70    14    11    1
    71    14    15    1
    72    45    44    2
    73    10    11    1
    74    10     7   am
    75    56    53    1
    76    35    34    1
    77    35    42   am
    78    34    37    1
    79    66    64    1
    80     4     3    2
    81    37    38    1
    82    53    52    1
    83    53    54    1
    84    44    52   am
    85    44    43    1
    86    46    43    1
    87    46    47    1
    88    63    62    2
    89     6     7    1
    90     6     9    1
    91     6     5    1
    92    60    54   am
    93    60    61    1
    94     7     8    2
    95    48    47   ar
    96    48    50   ar
    97    42    43    1
    98    65    64    1
    99    47    49   ar
   100     3     5   am
   101     3     2    1
   102    38    39    1
   103    64    61    1
   104    54    55    2
   105     1     2    1
   106    62    61    1
   107    50    51   ar
   108    49    51   ar
   109    39    41   ar
   110    39    40   ar
