@<TRIPOS>MOLECULE
tmp/1e6vC00.pdb
 89 89 0 0 0
SMALL
GASTEIGER

@<TRIPOS>ATOM
      1  N         66.6980   17.1320  105.1910 N.3   115  LEU115     -0.1231
      2  CA        65.6960   16.5360  106.0680 C.3   115  LEU115      0.1693
      3  C         65.0210   17.6420  106.8740 C.2   115  LEU115      0.2593
      4  O         65.4630   18.7910  106.8510 O.2   115  LEU115     -0.2718
      5  CB        66.3500   15.5270  107.0190 C.3   115  LEU115      0.0284
      6  CG        67.2680   14.4510  106.4260 C.3   115  LEU115      0.0019
      7  CD1       68.6760   15.0000  106.2230 C.3   115  LEU115      0.0001
      8  CD2       67.3080   13.2610  107.3620 C.3   115  LEU115      0.0001
      9  N         63.9790   17.2820  107.6190 N.am  116  SER116     -0.1938
     10  CA        63.2310   18.2420  108.4240 C.3   116  SER116      0.2055
     11  C         64.1060   18.9270  109.4780 C.2   116  SER116      0.2644
     12  O         64.2450   20.1430  109.4740 O.2   116  SER116     -0.2714
     13  CB        62.0410   17.5470  109.0910 C.3   116  SER116      0.2130
     14  OG        61.4880   18.3360  110.1270 O.3   116  SER116     -0.2179
     15  N         64.7870   18.1370  110.3000 N.am  117  GLY117     -0.1939
     16  CA        65.5520   18.6990  111.4010 C.3   117  GLY117      0.2014
     17  C         67.0560   18.6580  111.2150 C.2   117  GLY117      0.2638
     18  O         67.8070   18.8900  112.1640 O.2   117  GLY117     -0.2714
     19  N         67.5010   18.3720  109.9970 N.am  118  ARG118     -0.1977
     20  CA        68.9270   18.3180  109.7040 C.3   118  ARG118      0.1597
     21  C         69.2080   18.5050  108.2190 C.2   118  ARG118      0.2287
     22  O         68.3540   18.2330  107.3740 O.2   118  ARG118     -0.2864
     23  CB        69.5210   16.9900  110.1890 C.3   118  ARG118      0.0334
     24  CG        68.6490   15.7700  109.9190 C.3   118  ARG118      0.0492
     25  CD        69.2070   14.5230  110.5830 C.3   118  ARG118      0.2205
     26  NE        70.4830   14.1140  110.0020 N.pl3 118  ARG118     -0.0865
     27  CZ        70.7490   12.8900  109.5590 C.cat 118  ARG118      0.5346
     28  NH1       71.9420   12.6170  109.0500 N.pl3 118  ARG118      0.1354
     29  NH2       69.8290   11.9380  109.6220 N.pl3 118  ARG118      0.1354
     30  N         76.0460   16.8820  114.0900 N.3   150  GLY150     -0.1210
     31  CA        75.9690   15.6690  113.2930 C.3   150  GLY150      0.1956
     32  C         75.2430   14.5310  113.9890 C.2   150  GLY150      0.2612
     33  O         75.0200   13.4750  113.3950 O.2   150  GLY150     -0.2717
     34  N         74.8920   14.7390  115.2560 N.am  151  ALA151     -0.1965
     35  CA        74.1380   13.7590  116.0350 C.3   151  ALA151      0.1728
     36  C         73.1850   14.4760  116.9880 C.2   151  ALA151      0.2617
     37  O         73.3660   15.6580  117.2760 O.2   151  ALA151     -0.2715
     38  CB        75.0940   12.8650  116.8180 C.3   151  ALA151      0.0334
     39  N         72.1680   13.7570  117.4600 N.am  152  THR152     -0.1937
     40  CA        71.1400   14.3010  118.3570 C.3   152  THR152      0.2028
     41  C         70.6510   15.6930  117.9200 C.2   152  THR152      0.2642
     42  O         70.6480   16.6520  118.6970 O.2   152  THR152     -0.2714
     43  CB        71.6370   14.3270  119.8350 C.3   152  THR152      0.1808
     44  OG1       72.2950   15.5670  120.1120 O.3   152  THR152     -0.2208
     45  CG2       72.6150   13.1880  120.0870 C.3   152  THR152      0.0379
     46  N         70.1610   15.7610  116.6850 N.am  153  VAL153     -0.1963
     47  CA        69.8630   17.0270  116.0230 C.3   153  VAL153      0.1727
     48  C         68.5800   17.7050  116.5040 C.2   153  VAL153      0.2616
     49  O         68.2600   18.8120  116.0680 O.2   153  VAL153     -0.2715
     50  CB        69.7790   16.8420  114.4880 C.3   153  VAL153      0.0290
     51  CG1       71.0690   16.2330  113.9640 C.3   153  VAL153      0.0023
     52  CG2       68.5850   15.9680  114.1250 C.3   153  VAL153      0.0023
     53  N         67.8660   17.0450  117.4140 N.am  154  HIS154     -0.1959
     54  CA        66.5920   17.5330  117.9400 C.3   154  HIS154      0.1790
     55  C         66.6680   18.9970  118.3810 C.2   154  HIS154      0.2660
     56  O         67.4940   19.3530  119.2230 O.2   154  HIS154     -0.2711
     57  CB        66.1680   16.6550  119.1210 C.3   154  HIS154      0.0785
     58  CG        64.7860   16.9320  119.6260 C.ar  154  HIS154      0.0821
     59  ND1       63.6790   16.2450  119.1740 N.ar  154  HIS154     -0.2267
     60  CD2       64.3440   17.7510  120.6090 C.ar  154  HIS154      0.1154
     61  CE1       62.6170   16.6250  119.8620 C.ar  154  HIS154      0.1986
     62  NE2       62.9930   17.5370  120.7390 N.ar  154  HIS154     -0.2212
     63  N         65.8560   19.8490  117.7570 N.am  155  GLY155     -0.1716
     64  CA        65.7940   21.2380  118.1780 C.2   155  GLY155      0.1480
     65  C         65.1790   22.2430  117.2190 C.2   155  GLY155      0.2820
     66  O         64.7970   23.3320  117.6470 O.2   155  GLY155     -0.2669
     67  N         65.0680   21.8960  115.9380 N.am  156  HIS156     -0.1925
     68  CA        64.6690   22.8690  114.9180 C.3   156  HIS156      0.1790
     69  C         63.2550   23.4120  115.1260 C.2   156  HIS156      0.2620
     70  O         63.0330   24.6230  115.0630 O.2   156  HIS156     -0.2715
     71  CB        64.8250   22.2730  113.5040 C.3   156  HIS156      0.0785
     72  CG        63.6220   21.5220  113.0130 C.ar  156  HIS156      0.0821
     73  ND1       63.2900   20.2640  113.4580 N.ar  156  HIS156     -0.2267
     74  CD2       62.6900   21.8540  112.0840 C.ar  156  HIS156      0.1154
     75  CE1       62.2080   19.8470  112.8320 C.ar  156  HIS156      0.1986
     76  NE2       61.8200   20.7900  111.9920 N.ar  156  HIS156     -0.2212
     77  N         62.3310   22.5230  115.4780 N.am  157  ALA157     -0.1963
     78  CA        60.9320   22.8880  115.6770 C.3   157  ALA157      0.1728
     79  C         60.6410   23.1860  117.1440 C.2   157  ALA157      0.2616
     80  O         59.4810   23.2580  117.5560 O.2   157  ALA157     -0.2715
     81  CB        60.0290   21.7650  115.1840 C.3   157  ALA157      0.0334
     82  N         61.7010   23.3350  117.9330 N.am  158  LEU158     -0.1977
     83  CA        61.5620   23.5800  119.3630 C.3   158  LEU158      0.1596
     84  C         61.6530   25.0610  119.6980 C.2   158  LEU158      0.2287
     85  O         62.3680   25.8190  119.0360 O.2   158  LEU158     -0.2864
     86  CB        62.6310   22.8120  120.1430 C.3   158  LEU158      0.0297
     87  CG        62.1750   21.5060  120.7950 C.3   158  LEU158      0.0022
     88  CD1       61.9080   20.4560  119.7260 C.3   158  LEU158      0.0001
     89  CD2       63.2350   21.0260  121.7680 C.3   158  LEU158      0.0001
@<TRIPOS>BOND
     1     1     2    1
     2     2     3    1
     3     2     5    1
     4     7     6    1
     5     6     5    1
     6     6     8    1
     7     4     3    2
     8     3     9   am
     9    22    21    2
    10     9    10    1
    11    21    20    1
    12    10    13    1
    13    10    11    1
    14    28    27    1
    15    13    14    1
    16    12    11    2
    17    11    15   am
    18    27    29    1
    19    27    26    2
    20    20    19    1
    21    20    23    1
    22    24    23    1
    23    24    25    1
    24    19    17   am
    25    26    25    1
    26    15    16    1
    27    17    16    1
    28    17    18    2
    29    76    74   ar
    30    76    75   ar
    31    74    72   ar
    32    75    73   ar
    33    72    73   ar
    34    72    71    1
    35    31    32    1
    36    31    30    1
    37    33    32    2
    38    71    68    1
    39    51    50    1
    40    32    34   am
    41    52    50    1
    42    50    47    1
    43    68    69    1
    44    68    67    1
    45    70    69    2
    46    69    77   am
    47    81    78    1
    48    34    35    1
    49    77    78    1
    50    78    79    1
    51    67    65   am
    52    47    48    1
    53    47    46    1
    54    35    38    1
    55    35    36    1
    56    49    48    2
    57    48    53   am
    58    46    41   am
    59    36    37    2
    60    36    39   am
    61    79    80    2
    62    79    82   am
    63    65    66    2
    64    65    64    1
    65    53    54    1
    66    39    40    1
    67    63    64    2
    68    63    55    1
    69    41    40    1
    70    41    42    2
    71    82    83    1
    72    54    55    1
    73    54    57    1
    74    40    43    1
    75    55    56    2
    76    85    84    2
    77    57    58    1
    78    59    58   ar
    79    59    61   ar
    80    83    84    1
    81    83    86    1
    82    58    60   ar
    83    88    87    1
    84    43    45    1
    85    43    44    1
    86    61    62   ar
    87    86    87    1
    88    60    62   ar
    89    87    89    1
