@<TRIPOS>MOLECULE
tmp/1e6vD03.pdb
 106 102 0 0 0
SMALL
GASTEIGER

@<TRIPOS>ATOM
      1  N         53.6690  -20.7300   96.9480 N.3   266  ARG266     -0.1231
      2  CA        52.5620  -21.5140   97.4990 C.3   266  ARG266      0.1694
      3  C         52.6540  -21.6560   99.0210 C.2   266  ARG266      0.2591
      4  O         51.6320  -21.6800   99.7120 O.2   266  ARG266     -0.2718
      5  CB        52.4920  -22.8990   96.8440 C.3   266  ARG266      0.0321
      6  CG        51.2130  -23.6650   97.1710 C.3   266  ARG266      0.0489
      7  CD        51.0860  -24.9440   96.3610 C.3   266  ARG266      0.2205
      8  NE        50.7580  -24.6740   94.9630 N.pl3 266  ARG266     -0.0865
      9  CZ        49.5230  -24.6670   94.4660 C.cat 266  ARG266      0.5346
     10  NH1       49.3290  -24.3670   93.1900 N.pl3 266  ARG266      0.1354
     11  NH2       48.4860  -24.9820   95.2300 N.pl3 266  ARG266      0.1354
     12  N         53.8740  -21.7900   99.5330 N.am  267  ARG267     -0.1980
     13  CA        54.1000  -21.7060  100.9710 C.3   267  ARG267      0.1597
     14  C         54.8740  -20.4330  101.3090 C.2   267  ARG267      0.2287
     15  O         55.8510  -20.4540  102.0620 O.2   267  ARG267     -0.2864
     16  CB        54.8240  -22.9630  101.4810 C.3   267  ARG267      0.0334
     17  CG        56.2040  -23.2250  100.9060 C.3   267  ARG267      0.0492
     18  CD        56.4850  -24.7150  100.8560 C.3   267  ARG267      0.2205
     19  NE        56.0600  -25.2580   99.5730 N.pl3 267  ARG267     -0.0865
     20  CZ        56.8590  -25.4100   98.5210 C.cat 267  ARG267      0.5346
     21  NH1       56.3370  -25.6610   97.3330 N.pl3 267  ARG267      0.1354
     22  NH2       58.1760  -25.4280   98.6740 N.pl3 267  ARG267      0.1354
     23  N         54.5690  -28.6110  110.1520 N.3   316  LEU316     -0.1245
     24  CA        53.5580  -29.2750  109.3320 C.3   316  LEU316      0.1561
     25  C         52.1940  -29.2890  110.0090 C.2   316  LEU316      0.2260
     26  O         51.1670  -29.1660  109.3430 O.2   316  LEU316     -0.2867
     27  CB        53.9830  -30.7100  109.0000 C.3   316  LEU316      0.0270
     28  CG        55.2020  -30.8840  108.0860 C.3   316  LEU316      0.0019
     29  CD1       55.3510  -32.3420  107.6990 C.3   316  LEU316      0.0001
     30  CD2       55.0580  -30.0200  106.8440 C.3   316  LEU316      0.0001
     31  N         51.5140  -25.3550  108.2190 N.3   320  MET320     -0.1230
     32  CA        51.1470  -25.9520  106.9440 C.3   320  MET320      0.1702
     33  C         49.7690  -26.6100  106.9500 C.2   320  MET320      0.2593
     34  O         49.2520  -26.9870  105.8960 O.2   320  MET320     -0.2718
     35  CB        52.2050  -26.9760  106.5320 C.3   320  MET320      0.0401
     36  CG        53.5310  -26.3690  106.1150 C.3   320  MET320      0.0596
     37  SD        53.3490  -25.0110  104.9540 S.3   320  MET320     -0.1393
     38  CE        52.8250  -25.8970  103.4780 C.3   320  MET320      0.0692
     39  N         49.1790  -26.7590  108.1330 N.am  321  SER321     -0.1952
     40  CA        47.8510  -27.3510  108.2490 C.3   321  SER321      0.1924
     41  C         47.0560  -26.7500  109.4030 C.2   321  SER321      0.2314
     42  O         46.2590  -25.8400  109.1980 O.2   321  SER321     -0.2863
     43  CB        47.9520  -28.8750  108.4050 C.3   321  SER321      0.2116
     44  OG        48.5900  -29.2410  109.6160 O.3   321  SER321     -0.2180
     45  N         49.5920  -32.7840  114.8300 N.3   326  PHE326     -0.1241
     46  CA        50.4180  -33.9660  114.6030 C.3   326  PHE326      0.1605
     47  C         51.3310  -34.2490  115.7970 C.2   326  PHE326      0.2264
     48  O         52.5340  -34.4560  115.6300 O.2   326  PHE326     -0.2867
     49  CB        51.2740  -33.7760  113.3420 C.3   326  PHE326      0.0534
     50  CG        50.4780  -33.4780  112.0960 C.ar  326  PHE326     -0.0203
     51  CD1       49.2320  -34.0590  111.8860 C.ar  326  PHE326     -0.0042
     52  CD2       50.9980  -32.6480  111.1090 C.ar  326  PHE326     -0.0042
     53  CE1       48.5190  -33.8230  110.7180 C.ar  326  PHE326     -0.0003
     54  CE2       50.2910  -32.4060  109.9350 C.ar  326  PHE326     -0.0003
     55  CZ        49.0500  -32.9950  109.7400 C.ar  326  PHE326     -0.0000
     56  N         52.3820  -38.1490  115.7440 N.3   329  TYR329     -0.1241
     57  CA        53.2450  -38.3630  114.5840 C.3   329  TYR329      0.1605
     58  C         54.6910  -38.0710  114.9740 C.2   329  TYR329      0.2264
     59  O         55.6150  -38.7040  114.4710 O.2   329  TYR329     -0.2867
     60  CB        52.8360  -37.4420  113.4280 C.3   329  TYR329      0.0534
     61  CG        51.7790  -38.0140  112.5060 C.ar  329  TYR329     -0.0201
     62  CD1       51.8530  -39.3320  112.0630 C.ar  329  TYR329     -0.0009
     63  CD2       50.7300  -37.2220  112.0390 C.ar  329  TYR329     -0.0009
     64  CE1       50.9110  -39.8480  111.1730 C.ar  329  TYR329      0.0417
     65  CE2       49.7850  -37.7290  111.1520 C.ar  329  TYR329      0.0417
     66  CZ        49.8830  -39.0390  110.7200 C.ar  329  TYR329      0.1957
     67  OH        48.9640  -39.5320  109.8260 O.3   329  TYR329     -0.2866
     68  N         50.1550  -43.3250  106.1920 N.3   439  PHE439     -0.1241
     69  CA        48.9270  -42.7230  105.6930 C.3   439  PHE439      0.1605
     70  C         48.9880  -42.6210  104.1670 C.2   439  PHE439      0.2264
     71  O         49.9590  -43.0590  103.5510 O.2   439  PHE439     -0.2867
     72  CB        48.7000  -41.3440  106.3380 C.3   439  PHE439      0.0534
     73  CG        49.6390  -40.2740  105.8540 C.ar  439  PHE439     -0.0203
     74  CD1       49.2760  -39.4420  104.8060 C.ar  439  PHE439     -0.0042
     75  CD2       50.8830  -40.0960  106.4460 C.ar  439  PHE439     -0.0042
     76  CE1       50.1340  -38.4580  104.3480 C.ar  439  PHE439     -0.0003
     77  CE2       51.7500  -39.1070  105.9920 C.ar  439  PHE439     -0.0003
     78  CZ        51.3730  -38.2890  104.9420 C.ar  439  PHE439     -0.0000
     79  N         58.2870  -31.4480  101.1430 N.3   475  ALA475     -0.1231
     80  CA        57.5560  -30.2510  101.5620 C.3   475  ALA475      0.1694
     81  C         56.1610  -30.4720  102.1530 C.2   475  ALA475      0.2592
     82  O         55.5410  -29.5250  102.6420 O.2   475  ALA475     -0.2718
     83  CB        57.4690  -29.2680  100.4010 C.3   475  ALA475      0.0304
     84  N         55.6850  -31.7160  102.1570 N.am  476  MET476     -0.1965
     85  CA        54.2760  -31.9770  102.4380 C.3   476  MET476      0.1736
     86  C         53.9750  -32.8530  103.6570 C.2   476  MET476      0.2616
     87  O         53.0360  -32.5760  104.4020 O.2   476  MET476     -0.2715
     88  CB        53.6090  -32.5890  101.2040 C.3   476  MET476      0.0427
     89  CG        53.4150  -31.6250  100.0530 C.3   476  MET476      0.0599
     90  SD        53.3200  -32.4900   98.4800 S.3   476  MET476     -0.1393
     91  CE        55.0640  -32.6190   98.0790 C.3   476  MET476      0.0692
     92  N         54.7430  -33.9260  103.8370 N.am  477  ASN477     -0.1958
     93  CA        54.2790  -35.0550  104.6420 C.3   477  ASN477      0.1819
     94  C         55.0610  -35.3030  105.9320 C.2   477  ASN477      0.2621
     95  O         56.2730  -35.0870  105.9950 O.2   477  ASN477     -0.2715
     96  CB        54.2650  -36.3280  103.7900 C.3   477  ASN477      0.1195
     97  CG        53.8600  -36.0590  102.3510 C.2   477  ASN477      0.2630
     98  OD1       54.7140  -35.8630  101.4870 O.2   477  ASN477     -0.2716
     99  ND2       52.5560  -35.9510  102.1100 N.am  477  ASN477     -0.0877
    100  N         54.3580  -35.8210  106.9360 N.am  478  VAL478     -0.1977
    101  CA        54.9240  -36.0540  108.2630 C.3   478  VAL478      0.1596
    102  C         55.7480  -37.3370  108.3340 C.2   478  VAL478      0.2287
    103  O         55.6640  -38.1900  107.4490 O.2   478  VAL478     -0.2864
    104  CB        53.8150  -36.1340  109.3400 C.3   478  VAL478      0.0276
    105  CG1       53.0420  -34.8280  109.3960 C.3   478  VAL478      0.0022
    106  CG2       52.8760  -37.3000  109.0410 C.3   478  VAL478      0.0022
@<TRIPOS>BOND
     1    10     9    1
     2     9     8    2
     3     9    11    1
     4     8     7    1
     5     7     6    1
     6     5     6    1
     7     5     2    1
     8     1     2    1
     9    21    20    1
    10     2     3    1
    11    91    90    1
    12    90    89    1
    13    20    22    1
    14    20    19    2
    15     3    12   am
    16     3     4    2
    17    12    13    1
    18    19    18    1
    19    89    88    1
    20    83    80    1
    21    18    17    1
    22    17    16    1
    23    13    14    1
    24    13    16    1
    25    79    80    1
    26    88    85    1
    27    14    15    2
    28    98    97    2
    29    80    81    1
    30    99    97   am
    31    81    84   am
    32    81    82    2
    33    84    85    1
    34    97    96    1
    35    85    86    1
    36    38    37    1
    37    71    70    2
    38    86    92   am
    39    86    87    2
    40    96    93    1
    41    92    93    1
    42    70    69    1
    43    76    74   ar
    44    76    78   ar
    45    93    94    1
    46    74    73   ar
    47    78    77   ar
    48    37    36    1
    49    69    68    1
    50    69    72    1
    51    73    72    1
    52    73    75   ar
    53    34    33    2
    54    94    95    2
    55    94   100   am
    56    77    75   ar
    57    36    35    1
    58    35    32    1
    59    30    28    1
    60   100   101    1
    61    32    33    1
    62    32    31    1
    63    33    39   am
    64   103   102    2
    65    29    28    1
    66    28    27    1
    67    39    40    1
    68    40    43    1
    69    40    41    1
    70   101   102    1
    71   101   104    1
    72    43    44    1
    73    27    24    1
    74   106   104    1
    75    42    41    2
    76    24    25    1
    77    24    23    1
    78   104   105    1
    79    26    25    2
    80    55    54   ar
    81    55    53   ar
    82    67    66    1
    83    54    52   ar
    84    53    51   ar
    85    66    65   ar
    86    66    64   ar
    87    52    50   ar
    88    65    63   ar
    89    64    62   ar
    90    51    50   ar
    91    63    61   ar
    92    62    61   ar
    93    50    49    1
    94    61    60    1
    95    49    46    1
    96    60    57    1
    97    59    58    2
    98    57    58    1
    99    57    56    1
   100    46    45    1
   101    46    47    1
   102    48    47    2
