@<TRIPOS>MOLECULE
tmp/1e6wC01.pdb
 123 115 0 0 0
SMALL
GASTEIGER

@<TRIPOS>ATOM
      1  N          6.1960  -14.5240   19.0150 N.3    89  ALA89      -0.1231
      2  CA         7.1620  -14.0250   18.0060 C.3    89  ALA89       0.1694
      3  C          8.4440  -14.8360   18.0750 C.2    89  ALA89       0.2592
      4  O          8.6910  -15.4650   19.1380 O.2    89  ALA89      -0.2718
      5  CB         7.5290  -12.5760   18.2630 C.3    89  ALA89       0.0304
      6  N          9.1610  -14.9470   16.9610 N.am   90  VAL90      -0.1966
      7  CA        10.4920  -15.5350   16.9750 C.3    90  VAL90       0.1727
      8  C         11.3750  -14.6210   16.1140 C.2    90  VAL90       0.2616
      9  O         10.8980  -13.7610   15.3520 O.2    90  VAL90      -0.2715
     10  CB        10.5800  -16.9500   16.4370 C.3    90  VAL90       0.0290
     11  CG1        9.7840  -17.9980   17.2080 C.3    90  VAL90       0.0023
     12  CG2       10.2630  -17.0530   14.9260 C.3    90  VAL90       0.0023
     13  N         12.7140  -14.7370   16.3000 N.am   91  ALA91      -0.1977
     14  CA        13.6750  -13.9620   15.5680 C.3    91  ALA91       0.1597
     15  C         14.7150  -14.9780   15.0020 C.2    91  ALA91       0.2287
     16  O         15.5910  -15.4710   15.7430 O.2    91  ALA91      -0.2864
     17  CB        14.4530  -13.0110   16.4580 C.3    91  ALA91       0.0319
     18  N          0.8350   -6.0190   12.7540 N.3   149  SER149     -0.1273
     19  CA         2.1480   -5.4110   13.1510 C.3   149  SER149      0.1575
     20  C          2.7130   -4.6250   12.0140 C.3   149  SER149      0.2036
     21  O          2.4150   -5.0360   10.8300 O.3   149  SER149     -0.2187
     22  CB         3.1910   -6.5660   13.4900 C.3   149  SER149      0.2036
     23  OG         4.4960   -5.9370   13.6750 O.3   149  SER149     -0.2187
     24  N         11.6650   -7.0840    9.5900 N.3   156  GLN156     -0.1231
     25  CA        13.1500   -7.0320    9.7710 C.3   156  GLN156      0.1698
     26  C         13.7810   -8.3940    9.4970 C.2   156  GLN156      0.2592
     27  O         13.2300   -9.4330    9.2790 O.2   156  GLN156     -0.2718
     28  CB        13.4500   -6.6270   11.2180 C.3   156  GLN156      0.0381
     29  CG        13.0630   -5.1910   11.4930 C.3   156  GLN156      0.0905
     30  CD        13.4860   -4.6600   12.8310 C.2   156  GLN156      0.2608
     31  OE1       13.2230   -5.1870   13.9020 O.2   156  GLN156     -0.2717
     32  NE2       14.1640   -3.5180   12.7880 N.am  156  GLN156     -0.0878
     33  N         15.1840   -8.3510    9.5500 N.am  157  VAL157     -0.1980
     34  CA        16.0260   -9.5530    9.4600 C.3   157  VAL157      0.1595
     35  C         15.6200  -10.4070   10.6340 C.2   157  VAL157      0.2287
     36  O         15.4010   -9.9180   11.7650 O.2   157  VAL157     -0.2864
     37  CB        17.5170   -9.0960    9.5450 C.3   157  VAL157      0.0276
     38  CG1       18.2910  -10.4540    9.8560 C.3   157  VAL157      0.0022
     39  CG2       18.0150   -8.3880    8.2860 C.3   157  VAL157      0.0022
     40  N         12.6160  -11.8440   10.9220 N.3   159  GLN159     -0.1245
     41  CA        11.1530  -11.8680   11.0640 C.3   159  GLN159      0.1566
     42  C         10.3350  -12.5150    9.9610 C.2   159  GLN159      0.2260
     43  O          9.0820  -12.2630    9.9400 O.2   159  GLN159     -0.2867
     44  CB        10.6440  -10.3620   11.1070 C.3   159  GLN159      0.0367
     45  CG        11.0900   -9.6360   12.3340 C.3   159  GLN159      0.0905
     46  CD        10.2710   -8.4100   12.7070 C.2   159  GLN159      0.2608
     47  OE1       10.2460   -7.4610   11.9360 O.2   159  GLN159     -0.2717
     48  NE2        9.7080   -8.4320   13.9210 N.am  159  GLN159     -0.0878
     49  N          7.1760  -14.2380   11.5370 N.3   162  TYR162     -0.1298
     50  CA         6.2370  -13.2520   12.1860 C.3   162  TYR162      0.1290
     51  C          5.6340  -12.3930   11.0840 C.3   162  TYR162      0.2013
     52  O          4.3960  -12.2430   11.1610 O.3   162  TYR162     -0.2188
     53  CB         7.0340  -12.3980   13.1530 C.3   162  TYR162      0.0480
     54  CG         6.3430  -11.4690   14.0570 C.ar  162  TYR162     -0.0204
     55  CD1        5.5210  -11.9420   15.1020 C.ar  162  TYR162     -0.0009
     56  CD2        6.3580  -10.0910   13.8370 C.ar  162  TYR162     -0.0009
     57  CE1        4.7780  -11.1010   15.8950 C.ar  162  TYR162      0.0417
     58  CE2        5.6240   -9.1870   14.6340 C.ar  162  TYR162      0.0417
     59  CZ         4.8780   -9.7580   15.7010 C.ar  162  TYR162      0.1957
     60  OH         4.2780   -8.8470   16.5630 O.3   162  TYR162     -0.2866
     61  N          3.4180   -0.5890   16.1800 N.3   193  GLY193     -0.1210
     62  CA         4.8850   -0.5490   15.8800 C.3   193  GLY193      0.1956
     63  C          5.5870   -1.3040   17.0730 C.2   193  GLY193      0.2612
     64  O          6.0150   -2.4610   16.8510 O.2   193  GLY193     -0.2717
     65  N          6.1300   -0.5150   17.9890 N.am  194  LEU194     -0.1965
     66  CA         6.9130   -1.1230   19.1100 C.3   194  LEU194      0.1728
     67  C          6.2850   -0.6270   20.4110 C.2   194  LEU194      0.2616
     68  O          6.2650    0.6320   20.6000 O.2   194  LEU194     -0.2715
     69  CB         8.3250   -0.5570   19.0120 C.3   194  LEU194      0.0311
     70  CG         9.2060   -0.9650   17.8280 C.3   194  LEU194      0.0022
     71  CD1       10.5000   -0.1150   17.8900 C.3   194  LEU194      0.0001
     72  CD2        9.4220   -2.4450   17.6850 C.3   194  LEU194      0.0001
     73  N          5.8630   -1.5950   21.2820 N.am  195  PHE195     -0.1974
     74  CA         5.1070   -1.2270   22.4380 C.3   195  PHE195      0.1639
     75  C          5.7870   -1.7630   23.7110 C.2   195  PHE195      0.2290
     76  O          6.2910   -2.8600   23.6180 O.2   195  PHE195     -0.2864
     77  CB         3.6550   -1.7170   22.4490 C.3   195  PHE195      0.0560
     78  CG         2.7320   -0.7130   21.7660 C.ar  195  PHE195     -0.0200
     79  CD1        2.7900   -0.4870   20.3970 C.ar  195  PHE195     -0.0042
     80  CD2        1.8110    0.0060   22.5650 C.ar  195  PHE195     -0.0042
     81  CE1        1.9270    0.5040   19.8450 C.ar  195  PHE195     -0.0003
     82  CE2        0.9520    0.9190   21.9450 C.ar  195  PHE195     -0.0003
     83  CZ         0.9870    1.2410   20.5700 C.ar  195  PHE195     -0.0000
     84  N          6.2730   -8.8860   25.5330 N.3   199  LEU199     -0.1231
     85  CA         6.6210   -9.4190   24.2590 C.3   199  LEU199      0.1693
     86  C          8.0540   -9.0200   23.9120 C.2   199  LEU199      0.2591
     87  O          8.7540   -9.8560   23.2880 O.2   199  LEU199     -0.2718
     88  CB         5.6550   -9.1430   23.1580 C.3   199  LEU199      0.0284
     89  CG         5.8580   -9.9070   21.8520 C.3   199  LEU199      0.0019
     90  CD1        5.4520  -11.3570   22.0310 C.3   199  LEU199      0.0001
     91  CD2        5.0690   -9.1700   20.7620 C.3   199  LEU199      0.0001
     92  N          8.4640   -7.8200   24.3310 N.am  200  LEU200     -0.1980
     93  CA         9.8650   -7.4830   24.2240 C.3   200  LEU200      0.1596
     94  C         10.7410   -8.4470   25.0450 C.2   200  LEU200      0.2287
     95  O         11.7500   -8.9740   24.5250 O.2   200  LEU200     -0.2864
     96  CB        10.0040   -6.0490   24.7430 C.3   200  LEU200      0.0297
     97  CG         9.2020   -4.9930   23.9830 C.3   200  LEU200      0.0022
     98  CD1        9.3900   -3.6120   24.5990 C.3   200  LEU200      0.0001
     99  CD2        9.5450   -4.8130   22.5140 C.3   200  LEU200      0.0001
    100  N         17.0420   -2.9880   23.8590 N.3   202  ASN202     -0.1240
    101  CA        17.3700   -2.1180   25.0080 C.3   202  ASN202      0.1653
    102  C         17.6270   -0.7300   24.4010 C.2   202  ASN202      0.2266
    103  O         18.2870    0.1240   25.0050 O.2   202  ASN202     -0.2867
    104  CB        18.5420   -2.6140   25.8510 C.3   202  ASN202      0.1155
    105  CG        18.4540   -3.4780   27.0770 C.2   202  ASN202      0.2627
    106  OD1       17.8640   -3.2480   28.1510 O.2   202  ASN202     -0.2716
    107  ND2       19.1930   -4.6060   27.1790 N.am  202  ASN202     -0.0877
    108  N         15.4120    0.2010   21.3360 N.3   204  LEU204     -0.1245
    109  CA        14.2730    0.2830   20.4490 C.3   204  LEU204      0.1561
    110  C         13.6070    1.6490   20.4020 C.2   204  LEU204      0.2260
    111  O         13.2620    2.2440   19.3570 O.2   204  LEU204     -0.2867
    112  CB        13.1700   -0.7250   20.8680 C.3   204  LEU204      0.0270
    113  CG        13.5770   -2.1930   20.8860 C.3   204  LEU204      0.0019
    114  CD1       12.4980   -3.0610   21.4980 C.3   204  LEU204      0.0001
    115  CD2       13.9140   -2.7030   19.4970 C.3   204  LEU204      0.0001
    116  N         10.4260    0.3900    9.8120 N.3   246  MET246     -0.1245
    117  CA        11.5310   -0.4160   10.3760 C.3   246  MET246      0.1570
    118  C         12.6740   -0.6780    9.4070 C.2   246  MET246      0.2261
    119  O         12.3970   -1.1450    8.3200 O.2   246  MET246     -0.2867
    120  CB        11.0660   -1.8240   10.8110 C.3   246  MET246      0.0387
    121  CG         9.8280   -1.7430   11.7520 C.3   246  MET246      0.0595
    122  SD         9.9450   -0.8000   13.2340 S.3   246  MET246     -0.1393
    123  CE        11.3120   -1.7140   14.0670 C.3   246  MET246      0.0692
@<TRIPOS>BOND
     1    39    37    1
     2   119   118    2
     3    27    26    2
     4   118   117    1
     5    34    37    1
     6    34    33    1
     7    34    35    1
     8    26    33   am
     9    26    25    1
    10    37    38    1
    11    24    25    1
    12    25    28    1
    13   116   117    1
    14    43    42    2
    15    42    41    1
    16   117   120    1
    17    35    36    2
    18   120   121    1
    19    21    20    1
    20    40    41    1
    21    41    44    1
    22    51    52    1
    23    51    50    1
    24    44    45    1
    25    28    29    1
    26    29    30    1
    27    49    50    1
    28   121   122    1
    29    47    46    2
    30    20    19    1
    31    50    53    1
    32    45    46    1
    33    46    48   am
    34    18    19    1
    35    32    30   am
    36    30    31    2
    37    19    22    1
    38    53    54    1
    39   122   123    1
    40    22    23    1
    41    56    54   ar
    42    56    58   ar
    43    54    55   ar
    44    58    59   ar
    45    12    10    1
    46    15    14    1
    47    15    16    2
    48    55    57   ar
    49     9     8    2
    50    14    13    1
    51    14    17    1
    52    59    57   ar
    53    59    60    1
    54    62    61    1
    55    62    63    1
    56     8    13   am
    57     8     7    1
    58    10     7    1
    59    10    11    1
    60    64    63    2
    61     6     7    1
    62     6     3   am
    63    63    65   am
    64    72    70    1
    65    70    71    1
    66    70    69    1
    67    65    66    1
    68     2     3    1
    69     2     5    1
    70     2     1    1
    71     3     4    2
    72    69    66    1
    73    66    67    1
    74   111   110    2
    75   115   113    1
    76    81    79   ar
    77    81    83   ar
    78    79    78   ar
    79   110   109    1
    80    67    68    2
    81    67    73   am
    82   109   112    1
    83   109   108    1
    84    83    82   ar
    85    91    89    1
    86   112   113    1
    87   113   114    1
    88    73    74    1
    89    78    77    1
    90    78    80   ar
    91    89    90    1
    92    89    88    1
    93    82    80   ar
    94    74    77    1
    95    74    75    1
    96    99    97    1
    97    88    85    1
    98    87    86    2
    99    76    75    2
   100   100   101    1
   101    86    85    1
   102    86    92   am
   103    97    98    1
   104    97    96    1
   105    93    92    1
   106    93    96    1
   107    93    94    1
   108    85    84    1
   109   102   103    2
   110   102   101    1
   111    95    94    2
   112   101   104    1
   113   104   105    1
   114   105   107   am
   115   105   106    2
