@<TRIPOS>MOLECULE
tmp/1e6xA06.pdb
 116 116 0 0 0
SMALL
GASTEIGER

@<TRIPOS>ATOM
      1  N         54.4610  120.6730   60.8920 N.3    37  GLN37      -0.1245
      2  CA        54.2340  122.0570   60.5150 C.3    37  GLN37       0.1566
      3  C         54.2810  123.0110   61.6890 C.2    37  GLN37       0.2260
      4  O         54.4210  124.2060   61.4530 O.2    37  GLN37      -0.2867
      5  CB        52.9250  122.1420   59.7420 C.3    37  GLN37       0.0367
      6  CG        52.9660  121.2990   58.4630 C.3    37  GLN37       0.0905
      7  CD        51.6840  121.4110   57.6390 C.2    37  GLN37       0.2608
      8  OE1       50.8020  120.6000   57.8330 O.2    37  GLN37      -0.2717
      9  NE2       51.6070  122.4100   56.7780 N.am   37  GLN37      -0.0878
     10  N         50.8190  112.1100   59.7450 N.3   139  HIS139     -0.1226
     11  CA        50.7430  113.2600   58.8140 C.3   139  HIS139      0.1752
     12  C         52.1330  113.4460   58.1670 C.2   139  HIS139      0.2596
     13  O         52.6960  114.5460   58.1340 O.2   139  HIS139     -0.2718
     14  CB        50.2850  114.5240   59.5280 C.3   139  HIS139      0.0759
     15  CG        49.6800  115.5830   58.6720 C.ar  139  HIS139      0.0818
     16  ND1       48.3230  115.9580   58.8470 N.ar  139  HIS139     -0.2268
     17  CD2       50.1630  116.3660   57.6650 C.ar  139  HIS139      0.1154
     18  CE1       48.0470  116.9310   57.9890 C.ar  139  HIS139      0.1986
     19  NE2       49.1580  117.1520   57.2590 N.ar  139  HIS139     -0.2212
     20  N         52.5650  112.3820   57.4740 N.am  140  TRP140     -0.1976
     21  CA        53.6810  112.3350   56.5440 C.3   140  TRP140      0.1640
     22  C         55.0760  112.2470   57.1400 C.2   140  TRP140      0.2290
     23  O         56.0620  112.0950   56.4330 O.2   140  TRP140     -0.2864
     24  CB        53.6070  113.5070   55.5550 C.3   140  TRP140      0.0576
     25  CG        52.2880  113.5070   54.7580 C.ar  140  TRP140      0.0006
     26  CD1       51.3850  112.5400   54.5720 C.ar  140  TRP140      0.0946
     27  CD2       51.9110  114.6090   53.9330 C.ar  140  TRP140      0.0152
     28  NE1       50.3990  112.9810   53.7160 N.ar  140  TRP140     -0.2442
     29  CE2       50.6690  114.2580   53.3230 C.ar  140  TRP140      0.0810
     30  CE3       52.4170  115.8870   53.7010 C.ar  140  TRP140      0.0012
     31  CZ2       50.0140  115.1210   52.4610 C.ar  140  TRP140      0.0191
     32  CZ3       51.7680  116.7150   52.8220 C.ar  140  TRP140      0.0001
     33  CH2       50.5340  116.3570   52.2610 C.ar  140  TRP140      0.0015
     34  N         47.2300  110.8030   56.7520 N.3   184  ASN184     -0.1225
     35  CA        46.8220  112.0070   56.0280 C.3   184  ASN184      0.1785
     36  C         46.8370  111.8670   54.5180 C.2   184  ASN184      0.2597
     37  O         47.8680  111.5510   53.9260 O.2   184  ASN184     -0.2718
     38  CB        47.6440  113.2020   56.4530 C.3   184  ASN184      0.1169
     39  CG        47.1150  114.4860   55.8680 C.2   184  ASN184      0.2627
     40  OD1       45.9610  114.8970   56.0860 O.2   184  ASN184     -0.2716
     41  ND2       47.9110  115.1900   55.0930 N.am  184  ASN184     -0.0877
     42  N         45.7710  112.3100   53.8540 N.am  185  GLN185     -0.1979
     43  CA        45.5790  112.3580   52.4160 C.3   185  GLN185      0.1601
     44  C         46.3140  111.2690   51.6570 C.2   185  GLN185      0.2287
     45  O         47.4450  111.3660   51.1230 O.2   185  GLN185     -0.2864
     46  CB        45.9560  113.6900   51.7930 C.3   185  GLN185      0.0394
     47  CG        45.3140  114.8990   52.4130 C.3   185  GLN185      0.0908
     48  CD        45.6060  116.1920   51.6570 C.2   185  GLN185      0.2608
     49  OE1       44.8630  117.1290   51.8250 O.2   185  GLN185     -0.2717
     50  NE2       46.7070  116.3330   50.8990 N.am  185  GLN185     -0.0878
     51  N         39.7930  121.2330   49.0650 N.3   328  TYR328     -0.1241
     52  CA        40.1930  122.5970   48.7820 C.3   328  TYR328      0.1605
     53  C         39.6840  123.1180   47.4230 C.2   328  TYR328      0.2264
     54  O         39.3200  124.2990   47.3740 O.2   328  TYR328     -0.2867
     55  CB        41.7530  122.6230   48.7670 C.3   328  TYR328      0.0534
     56  CG        42.3760  122.4350   50.1570 C.ar  328  TYR328     -0.0201
     57  CD1       42.5520  123.5670   50.9500 C.ar  328  TYR328     -0.0009
     58  CD2       42.7340  121.2000   50.6650 C.ar  328  TYR328     -0.0009
     59  CE1       43.1130  123.4450   52.1910 C.ar  328  TYR328      0.0417
     60  CE2       43.3020  121.0940   51.8990 C.ar  328  TYR328      0.0417
     61  CZ        43.4610  122.2310   52.6890 C.ar  328  TYR328      0.1957
     62  OH        44.0780  122.2240   53.9430 O.3   328  TYR328     -0.2866
     63  N         40.0170  119.1510   56.7070 N.3   407  GLU407     -0.1245
     64  CA        40.7160  120.3080   56.2800 C.3   407  GLU407      0.1567
     65  C         39.8840  121.0490   55.2260 C.2   407  GLU407      0.2260
     66  O         39.3080  120.4100   54.3420 O.2   407  GLU407     -0.2867
     67  CB        42.1270  120.1550   55.6240 C.3   407  GLU407      0.0388
     68  CG        43.0890  119.4130   56.5180 C.3   407  GLU407      0.1160
     69  CD        44.5080  119.2460   55.9630 C.2   407  GLU407      0.3649
     70  OE1       44.8800  119.9770   55.0350 O.co2 407  GLU407     -0.2457
     71  OE2       45.1640  118.3440   56.4700 O.co2 407  GLU407     -0.2457
     72  N         41.4760  124.5030   57.9150 N.3   455  TRP455     -0.1241
     73  CA        42.9270  124.5040   57.8880 C.3   455  TRP455      0.1605
     74  C         43.4380  125.9600   57.7950 C.2   455  TRP455      0.2264
     75  O         42.8900  126.6820   56.9250 O.2   455  TRP455     -0.2867
     76  CB        43.5580  123.7930   56.6780 C.3   455  TRP455      0.0550
     77  CG        45.0620  123.8390   56.7490 C.ar  455  TRP455      0.0003
     78  CD1       45.9470  124.6570   56.1460 C.ar  455  TRP455      0.0946
     79  CD2       45.7890  122.8790   57.4910 C.ar  455  TRP455      0.0152
     80  NE1       47.2140  124.3450   56.5300 N.ar  455  TRP455     -0.2442
     81  CE2       47.1640  123.1950   57.3150 C.ar  455  TRP455      0.0810
     82  CE3       45.4640  121.7240   58.2660 C.ar  455  TRP455      0.0012
     83  CZ2       48.1830  122.4690   57.9130 C.ar  455  TRP455      0.0191
     84  CZ3       46.4630  121.0070   58.8720 C.ar  455  TRP455      0.0001
     85  CH2       47.8180  121.3640   58.6360 C.ar  455  TRP455      0.0015
     86  N         54.3070  125.6070   55.6520 N.3   462  GLU462     -0.1231
     87  CA        53.4920  124.9650   54.6140 C.3   462  GLU462      0.1699
     88  C         54.3490  124.0610   53.7330 C.2   462  GLU462      0.2592
     89  O         55.3650  124.5130   53.1510 O.2   462  GLU462     -0.2718
     90  CB        52.8630  126.0300   53.7050 C.3   462  GLU462      0.0402
     91  CG        52.1680  125.4720   52.4560 C.3   462  GLU462      0.1161
     92  CD        50.9920  124.5650   52.6900 C.2   462  GLU462      0.3649
     93  OE1       50.6530  124.3410   53.8770 O.co2 462  GLU462     -0.2457
     94  OE2       50.4910  124.0310   51.6560 O.co2 462  GLU462     -0.2457
     95  N         53.9710  122.7840   53.6840 N.am  463  PHE463     -0.1976
     96  CA        54.6930  121.8360   52.8590 C.3   463  PHE463      0.1639
     97  C         54.9450  122.4640   51.5000 C.2   463  PHE463      0.2290
     98  O         53.9760  122.9560   50.9070 O.2   463  PHE463     -0.2864
     99  CB        54.0260  120.4910   52.7510 C.3   463  PHE463      0.0560
    100  CG        53.9020  119.6960   54.0150 C.ar  463  PHE463     -0.0200
    101  CD1       55.0340  119.1600   54.6170 C.ar  463  PHE463     -0.0042
    102  CD2       52.6550  119.5730   54.6450 C.ar  463  PHE463     -0.0042
    103  CE1       54.9670  118.4060   55.7660 C.ar  463  PHE463     -0.0003
    104  CE2       52.6140  118.7980   55.7830 C.ar  463  PHE463     -0.0003
    105  CZ        53.7380  118.2520   56.3650 C.ar  463  PHE463     -0.0000
    106  N         48.3260  130.1870   56.0700 N.3   471  PHE471     -0.1241
    107  CA        46.9990  129.5940   56.0450 C.3   471  PHE471      0.1605
    108  C         46.2380  129.7320   57.3620 C.2   471  PHE471      0.2264
    109  O         45.0820  129.3710   57.4360 O.2   471  PHE471     -0.2867
    110  CB        47.1010  128.0670   55.8080 C.3   471  PHE471      0.0534
    111  CG        47.1530  127.5710   54.3950 C.ar  471  PHE471     -0.0203
    112  CD1       45.9560  127.3320   53.7250 C.ar  471  PHE471     -0.0042
    113  CD2       48.3220  127.3880   53.7150 C.ar  471  PHE471     -0.0042
    114  CE1       45.9800  126.8270   52.4270 C.ar  471  PHE471     -0.0003
    115  CE2       48.3620  126.8710   52.4150 C.ar  471  PHE471     -0.0003
    116  CZ        47.1840  126.6520   51.7870 C.ar  471  PHE471     -0.0000
@<TRIPOS>BOND
     1    54    53    2
     2    53    52    1
     3    55    52    1
     4    55    56    1
     5    52    51    1
     6    56    58   ar
     7    56    57   ar
     8    58    60   ar
     9    50    48   am
    10    98    97    2
    11    57    59   ar
    12    45    44    2
    13    97    96    1
    14    94    92   ar
    15    44    43    1
    16    48    49    2
    17    48    47    1
    18   116   115   ar
    19   116   114   ar
    20    46    47    1
    21    46    43    1
    22    60    61   ar
    23    59    61   ar
    24    33    31   ar
    25    33    32   ar
    26   115   113   ar
    27    43    42    1
    28   114   112   ar
    29    91    92    1
    30    91    90    1
    31    31    29   ar
    32    61    62    1
    33    92    93   ar
    34    99    96    1
    35    99   100    1
    36    32    30   ar
    37    96    95    1
    38    89    88    2
    39    29    28   ar
    40    29    27   ar
    41    95    88   am
    42    30    27   ar
    43    90    87    1
    44   113   111   ar
    45    28    26   ar
    46   112   111   ar
    47    88    87    1
    48    42    36   am
    49    37    36    2
    50    27    25   ar
    51   100   101   ar
    52   100   102   ar
    53    66    65    2
    54   111   110    1
    55    36    35    1
    56    26    25   ar
    57    87    86    1
    58   101   103   ar
    59   102   104   ar
    60    25    24    1
    61    70    69   ar
    62    41    39   am
    63    65    64    1
    64    24    21    1
    65    67    64    1
    66    67    68    1
    67   103   105   ar
    68   104   105   ar
    69   110   107    1
    70    39    40    2
    71    39    38    1
    72    69    71   ar
    73    69    68    1
    74    35    38    1
    75    35    34    1
    76   107   106    1
    77   107   108    1
    78    78    80   ar
    79    78    77   ar
    80    64    63    1
    81    23    22    2
    82    80    81   ar
    83    21    22    1
    84    21    20    1
    85    76    77    1
    86    76    73    1
    87    77    79   ar
    88     9     7   am
    89    75    74    2
    90    19    17   ar
    91    19    18   ar
    92    81    79   ar
    93    81    83   ar
    94   108   109    2
    95    20    12   am
    96    79    82   ar
    97     7     8    2
    98     7     6    1
    99    17    15   ar
   100    74    73    1
   101    73    72    1
   102    83    85   ar
   103    18    16   ar
   104    13    12    2
   105    12    11    1
   106    82    84   ar
   107     6     5    1
   108    85    84   ar
   109    15    16   ar
   110    15    14    1
   111    11    14    1
   112    11    10    1
   113     5     2    1
   114     2     1    1
   115     2     3    1
   116     4     3    2
