@<TRIPOS>MOLECULE
tmp/1e6yD00.pdb
 128 130 0 0 0
SMALL
GASTEIGER

@<TRIPOS>ATOM
      1  N         74.8550   54.0620   81.4100 N.3    72  HIS72      -0.1241
      2  CA        75.9350   54.5630   80.5680 C.3    72  HIS72       0.1621
      3  C         76.8490   53.4040   80.1640 C.2    72  HIS72       0.2264
      4  O         77.1260   52.5130   80.9730 O.2    72  HIS72      -0.2867
      5  CB        76.7370   55.6330   81.3230 C.3    72  HIS72       0.0745
      6  CG        77.6820   56.4110   80.4590 C.ar   72  HIS72       0.0817
      7  ND1       78.7800   55.8380   79.8520 N.ar   72  HIS72      -0.2268
      8  CD2       77.7330   57.7290   80.1600 C.ar   72  HIS72       0.1154
      9  CE1       79.4690   56.7720   79.2220 C.ar   72  HIS72       0.1986
     10  NE2       78.8560   57.9290   79.3920 N.ar   72  HIS72      -0.2212
     11  N         67.8420   67.8850   70.2690 N.3   336  GLY336     -0.1210
     12  CA        67.2890   67.4890   71.5540 C.3   336  GLY336      0.1956
     13  C         68.1090   66.4480   72.2930 C.2   336  GLY336      0.2612
     14  O         69.1770   66.0470   71.8320 O.2   336  GLY336     -0.2717
     15  N         67.5770   65.9720   73.4170 N.am  337  GLY337     -0.1942
     16  CA        68.3180   65.0690   74.2800 C.3   337  GLY337      0.2014
     17  C         69.2080   65.8190   75.2550 C.2   337  GLY337      0.2639
     18  O         68.8640   66.9150   75.7050 O.2   337  GLY337     -0.2714
     19  N         70.3450   65.2210   75.5980 N.am  338  VAL338     -0.1963
     20  CA        71.3470   65.8800   76.4290 C.3   338  VAL338      0.1727
     21  C         71.7070   67.2500   75.8440 C.2   338  VAL338      0.2617
     22  O         71.7720   68.2450   76.5680 O.2   338  VAL338     -0.2715
     23  CB        72.6180   64.9980   76.5530 C.3   338  VAL338      0.0290
     24  CG1       73.7840   65.7930   77.1260 C.3   338  VAL338      0.0023
     25  CG2       72.3250   63.8060   77.4370 C.3   338  VAL338      0.0023
     26  N         71.8700   67.3040   74.5260 N.am  339  GLY339     -0.1940
     27  CA        72.0190   68.5800   73.8530 C.3   339  GLY339      0.2014
     28  C         73.4140   69.1680   73.9310 C.2   339  GLY339      0.2639
     29  O         74.4040   68.4420   74.0560 O.2   339  GLY339     -0.2714
     30  N         73.4890   70.4940   73.8770 N.am  340  PHE340     -0.1959
     31  CA        74.7420   71.1790   73.5700 C.3   340  PHE340      0.1771
     32  C         75.1190   72.2400   74.6010 C.2   340  PHE340      0.2620
     33  O         75.6060   73.3130   74.2420 O.2   340  PHE340     -0.2715
     34  CB        74.6560   71.8250   72.1800 C.3   340  PHE340      0.0574
     35  CG        74.3290   70.8570   71.0730 C.ar  340  PHE340     -0.0200
     36  CD1       74.8660   69.5740   71.0610 C.ar  340  PHE340     -0.0042
     37  CD2       73.4650   71.2280   70.0490 C.ar  340  PHE340     -0.0042
     38  CE1       74.5430   68.6740   70.0510 C.ar  340  PHE340     -0.0003
     39  CE2       73.1350   70.3390   69.0320 C.ar  340  PHE340     -0.0003
     40  CZ        73.6750   69.0570   69.0340 C.ar  340  PHE340     -0.0000
     41  N         74.9880   71.9030   75.8810 N.am  341  THR341     -0.1937
     42  CA        75.2930   72.8520   76.9520 C.3   341  THR341      0.2028
     43  C         76.7240   73.3830   76.8480 C.2   341  THR341      0.2642
     44  O         76.9420   74.5950   76.7860 O.2   341  THR341     -0.2714
     45  CB        75.1090   72.2050   78.3440 C.3   341  THR341      0.1808
     46  OG1       73.7530   71.7640   78.4970 O.3   341  THR341     -0.2208
     47  CG2       75.4480   73.1980   79.4500 C.3   341  THR341      0.0379
     48  N         77.6870   72.4720   76.7590 N.am  342  GLN342     -0.1963
     49  CA        79.0920   72.8430   76.8700 C.3   342  GLN342      0.1733
     50  C         79.7180   73.3360   75.5690 C.2   342  GLN342      0.2616
     51  O         80.6630   74.1270   75.6020 O.2   342  GLN342     -0.2715
     52  CB        79.8900   71.6860   77.4800 C.3   342  GLN342      0.0408
     53  CG        79.5280   71.4670   78.9470 C.3   342  GLN342      0.0908
     54  CD        79.9220   70.1040   79.4810 C.2   342  GLN342      0.2608
     55  OE1       80.5640   70.0060   80.5250 O.2   342  GLN342     -0.2717
     56  NE2       79.4710   69.0470   78.8130 N.am  342  GLN342     -0.0878
     57  N         79.0900   73.0100   74.4400 N.am  343  TYR343     -0.1974
     58  CA        79.3990   73.6870   73.1800 C.3   343  TYR343      0.1639
     59  C         79.1910   75.1940   73.3400 C.2   343  TYR343      0.2290
     60  O         79.9380   75.9990   72.7790 O.2   343  TYR343     -0.2864
     61  CB        78.4960   73.1760   72.0560 C.3   343  TYR343      0.0560
     62  CG        78.9870   71.9170   71.3760 C.ar  343  TYR343     -0.0198
     63  CD1       80.2990   71.8100   70.9160 C.ar  343  TYR343     -0.0009
     64  CD2       78.1220   70.8460   71.1560 C.ar  343  TYR343     -0.0009
     65  CE1       80.7360   70.6660   70.2540 C.ar  343  TYR343      0.0417
     66  CE2       78.5460   69.6990   70.4910 C.ar  343  TYR343      0.0417
     67  CZ        79.8560   69.6150   70.0440 C.ar  343  TYR343      0.1957
     68  OH        80.2880   68.4780   69.4010 O.3   343  TYR343     -0.2866
     69  N         87.4800   70.7170   76.1990 N.3   413  PHE413     -0.1227
     70  CA        88.0020   69.4190   75.8030 C.3   413  PHE413      0.1736
     71  C         87.6300   69.0430   74.3750 C.2   413  PHE413      0.2596
     72  O         88.2960   68.2110   73.7560 O.2   413  PHE413     -0.2718
     73  CB        87.5340   68.3290   76.7830 C.3   413  PHE413      0.0547
     74  CG        86.0380   68.2210   76.9180 C.ar  413  PHE413     -0.0202
     75  CD1       85.3020   67.4110   76.0540 C.ar  413  PHE413     -0.0042
     76  CD2       85.3730   68.8720   77.9530 C.ar  413  PHE413     -0.0042
     77  CE1       83.9300   67.2500   76.2200 C.ar  413  PHE413     -0.0003
     78  CE2       83.9990   68.7160   78.1310 C.ar  413  PHE413     -0.0003
     79  CZ        83.2760   67.9030   77.2610 C.ar  413  PHE413     -0.0000
     80  N         86.5660   69.6530   73.8610 N.am  414  GLY414     -0.1942
     81  CA        86.1850   69.4310   72.4800 C.3   414  GLY414      0.2014
     82  C         86.8090   70.4540   71.5560 C.2   414  GLY414      0.2639
     83  O         86.8230   71.6500   71.8600 O.2   414  GLY414     -0.2714
     84  N         87.3220   69.9860   70.4220 N.am  415  GLY415     -0.1939
     85  CA        87.9180   70.8820   69.4460 C.3   415  GLY415      0.2014
     86  C         86.9650   71.9550   68.9590 C.2   415  GLY415      0.2640
     87  O         87.3810   73.0820   68.6890 O.2   415  GLY415     -0.2714
     88  N         85.6790   71.6160   68.8820 N.am  416  SER416     -0.1935
     89  CA        84.6560   72.5840   68.4900 C.3   416  SER416      0.2055
     90  C         84.6160   73.7500   69.4700 C.2   416  SER416      0.2642
     91  O         84.4590   74.9020   69.0620 O.2   416  SER416     -0.2714
     92  CB        83.2790   71.9210   68.4310 C.3   416  SER416      0.2130
     93  OG        83.2840   70.8090   67.5590 O.3   416  SER416     -0.2179
     94  N         84.7590   73.4480   70.7570 N.am  417  GLN417     -0.1976
     95  CA        84.7740   74.4820   71.7880 C.3   417  GLN417      0.1601
     96  C         85.9550   75.4230   71.5980 C.2   417  GLN417      0.2287
     97  O         85.7950   76.6450   71.6100 O.2   417  GLN417     -0.2864
     98  CB        84.8570   73.8500   73.1720 C.3   417  GLN417      0.0394
     99  CG        83.6580   73.0170   73.5530 C.3   417  GLN417      0.0908
    100  CD        83.8540   72.3370   74.8810 C.2   417  GLN417      0.2608
    101  OE1       84.7870   71.5540   75.0510 O.2   417  GLN417     -0.2717
    102  NE2       83.0160   72.6740   75.8510 N.am  417  GLN417     -0.0878
    103  N         87.1210   70.7660   64.7310 N.3   459  GLY459     -0.1210
    104  CA        85.9930   70.4570   65.5960 C.3   459  GLY459      0.1956
    105  C         85.4320   69.0630   65.3740 C.2   459  GLY459      0.2612
    106  O         86.1590   68.1480   64.9790 O.2   459  GLY459     -0.2717
    107  N         84.1300   68.9030   65.5990 N.am  460  PHE460     -0.1962
    108  CA        83.4710   67.6210   65.3640 C.3   460  PHE460      0.1771
    109  C         83.3490   67.3070   63.8650 C.2   460  PHE460      0.2619
    110  O         83.7790   68.0960   63.0180 O.2   460  PHE460     -0.2715
    111  CB        82.0920   67.5890   66.0500 C.3   460  PHE460      0.0574
    112  CG        81.0410   68.4340   65.3750 C.ar  460  PHE460     -0.0200
    113  CD1       80.1290   67.8570   64.4950 C.ar  460  PHE460     -0.0042
    114  CD2       80.9510   69.7960   65.6350 C.ar  460  PHE460     -0.0042
    115  CE1       79.1470   68.6270   63.8800 C.ar  460  PHE460     -0.0003
    116  CE2       79.9710   70.5750   65.0230 C.ar  460  PHE460     -0.0003
    117  CZ        79.0700   69.9900   64.1430 C.ar  460  PHE460     -0.0000
    118  N         82.8140   66.1220   63.5670 N.am  461  PHE461     -0.1974
    119  CA        82.7180   65.5800   62.2100 C.3   461  PHE461      0.1639
    120  C         82.2930   66.6300   61.1840 C.2   461  PHE461      0.2290
    121  O         82.8950   66.7410   60.1160 O.2   461  PHE461     -0.2864
    122  CB        81.7150   64.4210   62.1910 C.3   461  PHE461      0.0560
    123  CG        82.1150   63.2650   61.3100 C.ar  461  PHE461     -0.0200
    124  CD1       81.6560   61.9840   61.5940 C.ar  461  PHE461     -0.0042
    125  CD2       82.9110   63.4550   60.1840 C.ar  461  PHE461     -0.0042
    126  CE1       81.9790   60.9090   60.7710 C.ar  461  PHE461     -0.0003
    127  CE2       83.2410   62.3890   59.3580 C.ar  461  PHE461     -0.0003
    128  CZ        82.7740   61.1130   59.6510 C.ar  461  PHE461     -0.0000
@<TRIPOS>BOND
     1   127   128   ar
     2   127   125   ar
     3   128   126   ar
     4   121   120    2
     5   125   123   ar
     6   126   124   ar
     7   120   119    1
     8   123   124   ar
     9   123   122    1
    10   122   119    1
    11   119   118    1
    12   110   109    2
    13   118   109   am
    14   109   108    1
    15   115   117   ar
    16   115   113   ar
    17   117   116   ar
    18   113   112   ar
    19   103   104    1
    20   106   105    2
    21   116   114   ar
    22   108   107    1
    23   108   111    1
    24   105   104    1
    25   105   107   am
    26   112   114   ar
    27   112   111    1
    28    93    92    1
    29    92    89    1
    30    89    88    1
    31    89    90    1
    32    87    86    2
    33    88    86   am
    34    86    85    1
    35    39    40   ar
    36    39    37   ar
    37    40    38   ar
    38    91    90    2
    39    68    67    1
    40    85    84    1
    41    90    94   am
    42    67    65   ar
    43    67    66   ar
    44    37    35   ar
    45    38    36   ar
    46    65    63   ar
    47    11    12    1
    48    84    82   am
    49    66    64   ar
    50    94    95    1
    51    63    62   ar
    52    36    35   ar
    53    35    34    1
    54    64    62   ar
    55    62    61    1
    56    12    13    1
    57    82    83    2
    58    82    81    1
    59    96    97    2
    60    96    95    1
    61    95    98    1
    62    14    13    2
    63    61    58    1
    64    34    31    1
    65    13    15   am
    66    81    80    1
    67    60    59    2
    68    98    99    1
    69    58    59    1
    70    58    57    1
    71    15    16    1
    72    99   100    1
    73    31    30    1
    74    31    32    1
    75    72    71    2
    76    27    28    1
    77    27    26    1
    78    80    71   am
    79    30    28   am
    80    28    29    2
    81    33    32    2
    82    16    17    1
    83    71    70    1
    84    57    50   am
    85    26    21   am
    86    32    41   am
    87   100   101    2
    88   100   102   am
    89    17    19   am
    90    17    18    2
    91    50    51    2
    92    50    49    1
    93    19    20    1
    94    70    69    1
    95    70    73    1
    96    21    20    1
    97    21    22    2
    98    41    42    1
    99    75    77   ar
   100    75    74   ar
   101    77    79   ar
   102    20    23    1
   103    23    24    1
   104    23    25    1
   105    48    43   am
   106    48    49    1
   107    73    74    1
   108    44    43    2
   109    43    42    1
   110    49    52    1
   111    74    76   ar
   112    42    45    1
   113    79    78   ar
   114    52    53    1
   115    76    78   ar
   116    45    46    1
   117    45    47    1
   118    56    54   am
   119    53    54    1
   120     9    10   ar
   121     9     7   ar
   122    10     8   ar
   123    54    55    2
   124     7     6   ar
   125     8     6   ar
   126     3     2    1
   127     3     4    2
   128     6     5    1
   129     2     5    1
   130     2     1    1
