@<TRIPOS>MOLECULE
tmp/1e6yD02.pdb
 95 91 0 0 0
SMALL
GASTEIGER

@<TRIPOS>ATOM
      1  N         61.9750   71.9980   55.4620 N.3   282  ARG282     -0.1245
      2  CA        62.7330   71.0170   56.2190 C.3   282  ARG282      0.1563
      3  C         62.8500   71.4160   57.6990 C.2   282  ARG282      0.2260
      4  O         62.8660   70.4850   58.5200 O.2   282  ARG282     -0.2867
      5  CB        64.1410   70.8470   55.6090 C.3   282  ARG282      0.0307
      6  CG        64.8800   69.6490   56.1830 C.3   282  ARG282      0.0489
      7  CD        66.2500   69.4450   55.5050 C.3   282  ARG282      0.2205
      8  NE        66.0040   69.0120   54.1240 N.pl3 282  ARG282     -0.0865
      9  CZ        65.7460   67.7880   53.7240 C.cat 282  ARG282      0.5346
     10  NH1       65.4840   67.5880   52.4190 N.pl3 282  ARG282      0.1354
     11  NH2       65.7310   66.7420   54.5350 N.pl3 282  ARG282      0.1354
     12  N         69.6800   74.9350   68.3250 N.3   330  LEU330     -0.1245
     13  CA        70.2810   73.7500   67.7160 C.3   330  LEU330      0.1561
     14  C         70.2410   72.5510   68.6500 C.2   330  LEU330      0.2260
     15  O         69.9960   71.4280   68.2090 O.2   330  LEU330     -0.2867
     16  CB        71.7200   74.0310   67.2830 C.3   330  LEU330      0.0270
     17  CG        71.8390   75.0520   66.1490 C.3   330  LEU330      0.0019
     18  CD1       73.2980   75.3010   65.8420 C.3   330  LEU330      0.0001
     19  CD2       71.0960   74.5520   64.9160 C.3   330  LEU330      0.0001
     20  N         66.2050   71.8870   67.0360 N.3   334  MET334     -0.1230
     21  CA        66.7330   71.1950   65.8650 C.3   334  MET334      0.1702
     22  C         67.3160   69.8190   66.1720 C.2   334  MET334      0.2593
     23  O         67.7360   69.1080   65.2610 O.2   334  MET334     -0.2718
     24  CB        67.7920   72.0580   65.1690 C.3   334  MET334      0.0401
     25  CG        67.2380   73.2970   64.4660 C.3   334  MET334      0.0596
     26  SD        65.9280   72.9340   63.2680 S.3   334  MET334     -0.1393
     27  CE        66.7830   71.8320   62.1520 C.3   334  MET334      0.0692
     28  N         67.3820   69.4590   67.4500 N.am  335  SER335     -0.1952
     29  CA        67.8090   68.1180   67.8410 C.3   335  SER335      0.1924
     30  C         67.1540   67.6840   69.1470 C.2   335  SER335      0.2314
     31  O         66.0240   67.1940   69.1340 O.2   335  SER335     -0.2863
     32  CB        69.3430   68.0310   67.9360 C.3   335  SER335      0.2116
     33  OG        69.8810   68.9200   68.9030 O.3   335  SER335     -0.2180
     34  N         73.4890   70.4940   73.8770 N.3   340  PHE340     -0.1241
     35  CA        74.7420   71.1790   73.5700 C.3   340  PHE340      0.1605
     36  C         75.1190   72.2400   74.6010 C.2   340  PHE340      0.2264
     37  O         75.6060   73.3130   74.2420 O.2   340  PHE340     -0.2867
     38  CB        74.6560   71.8250   72.1800 C.3   340  PHE340      0.0534
     39  CG        74.3290   70.8570   71.0730 C.ar  340  PHE340     -0.0203
     40  CD1       74.8660   69.5740   71.0610 C.ar  340  PHE340     -0.0042
     41  CD2       73.4650   71.2280   70.0490 C.ar  340  PHE340     -0.0042
     42  CE1       74.5430   68.6740   70.0510 C.ar  340  PHE340     -0.0003
     43  CE2       73.1350   70.3390   69.0320 C.ar  340  PHE340     -0.0003
     44  CZ        73.6750   69.0570   69.0340 C.ar  340  PHE340     -0.0000
     45  N         79.0900   73.0100   74.4400 N.3   343  TYR343     -0.1241
     46  CA        79.3990   73.6870   73.1800 C.3   343  TYR343      0.1605
     47  C         79.1910   75.1940   73.3400 C.2   343  TYR343      0.2264
     48  O         79.9380   75.9990   72.7790 O.2   343  TYR343     -0.2867
     49  CB        78.4960   73.1760   72.0560 C.3   343  TYR343      0.0534
     50  CG        78.9870   71.9170   71.3760 C.ar  343  TYR343     -0.0201
     51  CD1       80.2990   71.8100   70.9160 C.ar  343  TYR343     -0.0009
     52  CD2       78.1220   70.8460   71.1560 C.ar  343  TYR343     -0.0009
     53  CE1       80.7360   70.6660   70.2540 C.ar  343  TYR343      0.0417
     54  CE2       78.5460   69.6990   70.4910 C.ar  343  TYR343      0.0417
     55  CZ        79.8560   69.6150   70.0440 C.ar  343  TYR343      0.1957
     56  OH        80.2880   68.4780   69.4010 O.3   343  TYR343     -0.2866
     57  N         84.1300   68.9030   65.5990 N.3   460  PHE460     -0.1241
     58  CA        83.4710   67.6210   65.3640 C.3   460  PHE460      0.1605
     59  C         83.3490   67.3070   63.8650 C.2   460  PHE460      0.2264
     60  O         83.7790   68.0960   63.0180 O.2   460  PHE460     -0.2867
     61  CB        82.0920   67.5890   66.0500 C.3   460  PHE460      0.0534
     62  CG        81.0410   68.4340   65.3750 C.ar  460  PHE460     -0.0203
     63  CD1       80.1290   67.8570   64.4950 C.ar  460  PHE460     -0.0042
     64  CD2       80.9510   69.7960   65.6350 C.ar  460  PHE460     -0.0042
     65  CE1       79.1470   68.6270   63.8800 C.ar  460  PHE460     -0.0003
     66  CE2       79.9710   70.5750   65.0230 C.ar  460  PHE460     -0.0003
     67  CZ        79.0700   69.9900   64.1430 C.ar  460  PHE460     -0.0000
     68  N         72.9010   76.7790   58.7520 N.3   494  ALA494     -0.1231
     69  CA        71.5960   76.2580   59.1560 C.3   494  ALA494      0.1694
     70  C         71.6190   75.0640   60.1140 C.2   494  ALA494      0.2592
     71  O         70.5930   74.7330   60.7120 O.2   494  ALA494     -0.2718
     72  CB        70.7740   75.9170   57.9190 C.3   494  ALA494      0.0304
     73  N         72.7870   74.4540   60.3060 N.am  495  MET495     -0.1965
     74  CA        72.8550   73.1680   61.0010 C.3   495  MET495      0.1736
     75  C         73.6830   73.1230   62.2810 C.2   495  MET495      0.2616
     76  O         73.3100   72.4350   63.2240 O.2   495  MET495     -0.2715
     77  CB        73.3750   72.0850   60.0530 C.3   495  MET495      0.0427
     78  CG        72.5080   71.8400   58.8370 C.3   495  MET495      0.0599
     79  SD        73.4980   71.2850   57.4430 S.3   495  MET495     -0.1393
     80  CE        74.2000   72.8470   56.8850 C.3   495  MET495      0.0692
     81  N         74.8400   73.7800   62.2910 N.am  496  ASN496     -0.1958
     82  CA        75.9120   73.3640   63.1920 C.3   496  ASN496      0.1819
     83  C         76.2020   74.2690   64.3850 C.2   496  ASN496      0.2621
     84  O         76.1810   75.4990   64.2800 O.2   496  ASN496     -0.2715
     85  CB        77.1960   73.1240   62.3930 C.3   496  ASN496      0.1195
     86  CG        76.9910   72.1440   61.2540 C.2   496  ASN496      0.2630
     87  OD1       77.1490   72.4970   60.0850 O.2   496  ASN496     -0.2716
     88  ND2       76.5600   70.9290   61.5860 N.am  496  ASN496     -0.0877
     89  N         76.5120   73.6330   65.5130 N.am  497  VAL497     -0.1977
     90  CA        76.8480   74.3390   66.7440 C.3   497  VAL497      0.1596
     91  C         78.1730   75.0760   66.6350 C.2   497  VAL497      0.2287
     92  O         78.9520   74.8410   65.7100 O.2   497  VAL497     -0.2864
     93  CB        76.9480   73.3740   67.9420 C.3   497  VAL497      0.0276
     94  CG1       75.6420   72.6600   68.1340 C.3   497  VAL497      0.0022
     95  CG2       78.0820   72.3790   67.7270 C.3   497  VAL497      0.0022
@<TRIPOS>BOND
     1    10     9    1
     2     9     8    2
     3     9    11    1
     4     8     7    1
     5     1     2    1
     6     7     6    1
     7     5     6    1
     8     5     2    1
     9     2     3    1
    10    80    79    1
    11    79    78    1
    12     3     4    2
    13    72    69    1
    14    68    69    1
    15    78    77    1
    16    69    70    1
    17    77    74    1
    18    87    86    2
    19    70    73   am
    20    70    71    2
    21    73    74    1
    22    74    75    1
    23    86    88   am
    24    86    85    1
    25    27    26    1
    26    75    81   am
    27    75    76    2
    28    81    82    1
    29    85    82    1
    30    60    59    2
    31    82    83    1
    32    26    25    1
    33    59    58    1
    34    65    67   ar
    35    65    63   ar
    36    67    66   ar
    37    84    83    2
    38    83    89   am
    39    25    24    1
    40    63    62   ar
    41    19    17    1
    42    66    64   ar
    43    24    21    1
    44    23    22    2
    45    58    57    1
    46    58    61    1
    47    62    64   ar
    48    62    61    1
    49    89    90    1
    50    92    91    2
    51    18    17    1
    52    21    22    1
    53    21    20    1
    54    17    16    1
    55    22    28   am
    56    91    90    1
    57    90    93    1
    58    16    13    1
    59    28    29    1
    60    13    12    1
    61    13    14    1
    62    95    93    1
    63    29    32    1
    64    29    30    1
    65    32    33    1
    66    93    94    1
    67    15    14    2
    68    43    44   ar
    69    43    41   ar
    70    44    42   ar
    71    31    30    2
    72    56    55    1
    73    55    53   ar
    74    55    54   ar
    75    41    39   ar
    76    42    40   ar
    77    53    51   ar
    78    54    52   ar
    79    51    50   ar
    80    40    39   ar
    81    39    38    1
    82    52    50   ar
    83    50    49    1
    84    49    46    1
    85    38    35    1
    86    48    47    2
    87    46    47    1
    88    46    45    1
    89    35    34    1
    90    35    36    1
    91    37    36    2
