@<TRIPOS>MOLECULE
tmp/1e6yD01.pdb
 114 108 0 0 0
SMALL
GASTEIGER

@<TRIPOS>ATOM
      1  N         41.9050   90.1990   78.4700 N.3   156  ALA156     -0.1231
      2  CA        40.7030   90.6710   79.1550 C.3   156  ALA156      0.1694
      3  C         39.7920   91.4680   78.2220 C.2   156  ALA156      0.2592
      4  O         40.2500   92.0460   77.2380 O.2   156  ALA156     -0.2718
      5  CB        41.0850   91.5070   80.3660 C.3   156  ALA156      0.0304
      6  N         38.5060   91.5130   78.5580 N.am  157  ALA157     -0.1966
      7  CA        37.4750   92.0010   77.6430 C.3   157  ALA157      0.1728
      8  C         37.2170   93.5000   77.7550 C.2   157  ALA157      0.2616
      9  O         37.2210   94.0640   78.8540 O.2   157  ALA157     -0.2715
     10  CB        36.1800   91.2380   77.8700 C.3   157  ALA157      0.0334
     11  N         36.8910   94.1150   76.6200 N.am  158  VAL158     -0.1963
     12  CA        36.5760   95.5420   76.5710 C.3   158  VAL158      0.1727
     13  C         35.2630   95.8860   75.8560 C.2   158  VAL158      0.2616
     14  O         34.7780   97.0100   75.9690 O.2   158  VAL158     -0.2715
     15  CB        37.7240   96.3530   75.9170 C.3   158  VAL158      0.0290
     16  CG1       38.9570   96.3270   76.8060 C.3   158  VAL158      0.0023
     17  CG2       38.0480   95.7980   74.5380 C.3   158  VAL158      0.0023
     18  N         34.6670   94.9240   75.1540 N.am  159  VAL159     -0.1963
     19  CA        33.4630   95.2100   74.3720 C.3   159  VAL159      0.1727
     20  C         32.2590   94.3280   74.7100 C.2   159  VAL159      0.2616
     21  O         31.1720   94.8360   74.9820 O.2   159  VAL159     -0.2715
     22  CB        33.7510   95.1210   72.8450 C.3   159  VAL159      0.0290
     23  CG1       32.4520   95.2100   72.0440 C.3   159  VAL159      0.0023
     24  CG2       34.6900   96.2430   72.4320 C.3   159  VAL159      0.0023
     25  N         32.4410   93.0110   74.6590 N.am  160  GLN160     -0.1963
     26  CA        31.3100   92.0930   74.7490 C.3   160  GLN160      0.1733
     27  C         30.8580   91.8150   76.1780 C.2   160  GLN160      0.2616
     28  O         31.6330   91.9550   77.1260 O.2   160  GLN160     -0.2715
     29  CB        31.6410   90.7740   74.0480 C.3   160  GLN160      0.0408
     30  CG        31.6980   90.8900   72.5370 C.3   160  GLN160      0.0908
     31  CD        31.8320   89.5480   71.8460 C.2   160  GLN160      0.2608
     32  OE1       32.6690   89.3790   70.9660 O.2   160  GLN160     -0.2717
     33  NE2       30.9830   88.5970   72.2220 N.am  160  GLN160     -0.0878
     34  N         29.5800   91.4730   76.3270 N.am  161  GLU161     -0.1963
     35  CA        29.0650   90.9710   77.5960 C.3   161  GLU161      0.1733
     36  C         29.3260   89.4670   77.7040 C.2   161  GLU161      0.2616
     37  O         29.4420   88.7740   76.6870 O.2   161  GLU161     -0.2715
     38  CB        27.5590   91.2520   77.7080 C.3   161  GLU161      0.0429
     39  CG        26.8630   90.6230   78.9220 C.3   161  GLU161      0.1163
     40  CD        27.3180   91.2100   80.2480 C.2   161  GLU161      0.3649
     41  OE1       26.5070   91.9000   80.9010 O.co2 161  GLU161     -0.2457
     42  OE2       28.4710   90.9500   80.6580 O.co2 161  GLU161     -0.2457
     43  N         29.5030   88.9960   78.9380 N.am  162  MET162     -0.1963
     44  CA        29.6150   87.5710   79.2550 C.3   162  MET162      0.1736
     45  C         30.8990   86.9430   78.7170 C.2   162  MET162      0.2616
     46  O         30.8950   85.8220   78.2020 O.2   162  MET162     -0.2715
     47  CB        28.3810   86.8100   78.7470 C.3   162  MET162      0.0427
     48  CG        27.9400   85.6650   79.6550 C.3   162  MET162      0.0599
     49  SD        27.9470   86.1020   81.4170 S.3   162  MET162     -0.1393
     50  CE        26.7820   87.4930   81.4270 C.3   162  MET162      0.0692
     51  N         32.0030   87.6670   78.8750 N.am  163  MET163     -0.1963
     52  CA        33.3130   87.1750   78.4640 C.3   163  MET163      0.1736
     53  C         34.0380   86.5340   79.6380 C.2   163  MET163      0.2616
     54  O         33.9010   86.9780   80.7800 O.2   163  MET163     -0.2715
     55  CB        34.1670   88.3210   77.9130 C.3   163  MET163      0.0427
     56  CG        33.6260   88.9550   76.6430 C.3   163  MET163      0.0599
     57  SD        33.7220   87.8470   75.2300 S.3   163  MET163     -0.1393
     58  CE        32.0650   87.1200   75.2330 C.3   163  MET163      0.0692
     59  N         34.7550   85.4490   79.3600 N.am  164  VAL164     -0.1977
     60  CA        35.7210   84.9160   80.3100 C.3   164  VAL164      0.1596
     61  C         37.0910   85.4880   79.9680 C.2   164  VAL164      0.2287
     62  O         37.3130   85.9480   78.8470 O.2   164  VAL164     -0.2864
     63  CB        35.7720   83.3670   80.2740 C.3   164  VAL164      0.0276
     64  CG1       34.3950   82.7910   80.5580 C.3   164  VAL164      0.0022
     65  CG2       36.2770   82.8860   78.9340 C.3   164  VAL164      0.0022
     66  N         45.2600   91.0480   67.8220 N.3   242  MET242     -0.1230
     67  CA        43.8790   90.8770   68.2790 C.3   242  MET242      0.1702
     68  C         43.5110   91.9340   69.3200 C.2   242  MET242      0.2592
     69  O         42.4730   92.5880   69.2100 O.2   242  MET242     -0.2718
     70  CB        43.6620   89.4790   68.8750 C.3   242  MET242      0.0401
     71  CG        43.9600   88.3190   67.9300 C.3   242  MET242      0.0596
     72  SD        43.0770   88.3780   66.3610 S.3   242  MET242     -0.1393
     73  CE        44.3800   88.9280   65.2680 C.3   242  MET242      0.0692
     74  N         44.3930   92.1340   70.2950 N.am  243  GLN243     -0.1979
     75  CA        44.0930   93.0180   71.4140 C.3   243  GLN243      0.1601
     76  C         44.3690   94.4850   71.1100 C.2   243  GLN243      0.2287
     77  O         43.7310   95.3650   71.6860 O.2   243  GLN243     -0.2864
     78  CB        44.8570   92.5720   72.6610 C.3   243  GLN243      0.0394
     79  CG        44.5230   91.1500   73.0980 C.3   243  GLN243      0.0908
     80  CD        43.0250   90.8580   73.0690 C.2   243  GLN243      0.2608
     81  OE1       42.4670   90.5180   72.0250 O.2   243  GLN243     -0.2717
     82  NE2       42.3750   90.9760   74.2210 N.am  243  GLN243     -0.0878
     83  N         41.0200   95.2270   69.4060 N.3   246  MET246     -0.1245
     84  CA        39.9600   95.4100   70.3980 C.3   246  MET246      0.1570
     85  C         40.0910   96.7520   71.1080 C.2   246  MET246      0.2261
     86  O         39.0930   97.4220   71.3700 O.2   246  MET246     -0.2867
     87  CB        39.9870   94.2830   71.4380 C.3   246  MET246      0.0387
     88  CG        39.5160   92.9330   70.9200 C.3   246  MET246      0.0595
     89  SD        37.9770   93.0250   69.9880 S.3   246  MET246     -0.1393
     90  CE        36.8850   93.7620   71.2030 C.3   246  MET246      0.0692
     91  N         39.0260   99.6250   68.8530 N.3   249  ILE249     -0.1245
     92  CA        37.5660   99.5880   68.7800 C.3   249  ILE249      0.1561
     93  C         36.9500  100.2630   70.0080 C.2   249  ILE249      0.2260
     94  O         36.0910  101.1350   69.8810 O.2   249  ILE249     -0.2867
     95  CB        37.0480   98.1220   68.6880 C.3   249  ILE249      0.0252
     96  CG1       37.3210   97.5570   67.2900 C.3   249  ILE249      0.0019
     97  CG2       35.5530   98.0570   69.0010 C.3   249  ILE249      0.0019
     98  CD1       37.0230   96.0730   67.1590 C.3   249  ILE249      0.0001
     99  N         32.1270   97.9850   66.6950 N.3   256  ALA256     -0.1231
    100  CA        32.8480   96.7870   67.0950 C.3   256  ALA256      0.1694
    101  C         32.8020   95.7690   65.9580 C.2   256  ALA256      0.2592
    102  O         32.0310   94.8090   65.9930 O.2   256  ALA256     -0.2718
    103  CB        32.2450   96.2090   68.3690 C.3   256  ALA256      0.0304
    104  N         33.5920   96.0360   64.9190 N.am  257  GLY257     -0.1957
    105  CA        33.5810   95.2060   63.7280 C.3   257  GLY257      0.1869
    106  C         33.0420   95.9250   62.5040 C.2   257  GLY257      0.2309
    107  O         31.9060   95.6940   62.0860 O.2   257  GLY257     -0.2863
    108  N         38.2110   98.4730   60.7160 N.3   261  VAL261     -0.1245
    109  CA        38.8920   97.5940   61.6590 C.3   261  VAL261      0.1561
    110  C         39.8420   96.6310   60.9470 C.2   261  VAL261      0.2260
    111  O         40.9300   96.3400   61.4520 O.2   261  VAL261     -0.2867
    112  CB        37.8770   96.7880   62.5010 C.3   261  VAL261      0.0252
    113  CG1       38.6020   95.8340   63.4340 C.3   261  VAL261      0.0019
    114  CG2       37.0000   97.7390   63.3060 C.3   261  VAL261      0.0019
@<TRIPOS>BOND
     1   108   109    1
     2   110   111    2
     3   110   109    1
     4   109   112    1
     5   107   106    2
     6   112   114    1
     7   112   113    1
     8   106   105    1
     9   105   104    1
    10   104   101   am
    11    73    72    1
    12   101   102    2
    13   101   100    1
    14    72    71    1
    15    99   100    1
    16   100   103    1
    17    98    96    1
    18    96    95    1
    19    66    67    1
    20    71    70    1
    21    67    70    1
    22    67    68    1
    23    95    92    1
    24    95    97    1
    25    92    91    1
    26    92    93    1
    27    69    68    2
    28    68    74   am
    29    83    84    1
    30    94    93    2
    31    89    88    1
    32    89    90    1
    33    74    75    1
    34    84    85    1
    35    84    87    1
    36    88    87    1
    37    32    31    2
    38    85    86    2
    39    76    75    1
    40    76    77    2
    41    75    78    1
    42    31    33   am
    43    31    30    1
    44    81    80    2
    45    23    22    1
    46    24    22    1
    47    30    29    1
    48    78    79    1
    49    22    19    1
    50    80    79    1
    51    80    82   am
    52    29    26    1
    53    19    20    1
    54    19    18    1
    55    17    15    1
    56    25    20   am
    57    25    26    1
    58    20    21    2
    59    26    27    1
    60    18    13   am
    61    57    58    1
    62    57    56    1
    63    13    14    2
    64    13    12    1
    65    15    12    1
    66    15    16    1
    67    27    34   am
    68    27    28    2
    69    34    35    1
    70    12    11    1
    71    11     8   am
    72    56    55    1
    73    37    36    2
    74     4     3    2
    75    35    36    1
    76    35    38    1
    77     7     8    1
    78     7    10    1
    79     7     6    1
    80    36    43   am
    81    38    39    1
    82     8     9    2
    83    55    52    1
    84    46    45    2
    85     3     6   am
    86     3     2    1
    87    52    51    1
    88    52    53    1
    89     1     2    1
    90    45    51   am
    91    45    44    1
    92    47    44    1
    93    47    48    1
    94    62    61    2
    95    39    40    1
    96    65    63    1
    97    43    44    1
    98     2     5    1
    99    59    53   am
   100    59    60    1
   101    53    54    2
   102    48    49    1
   103    61    60    1
   104    40    42   ar
   105    40    41   ar
   106    63    60    1
   107    63    64    1
   108    49    50    1
