@<TRIPOS>MOLECULE
tmp/1e6yC00.pdb
 91 90 0 0 0
SMALL
GASTEIGER

@<TRIPOS>ATOM
      1  N         23.6570   99.6270   62.9540 N.3    85  GLN85      -0.1245
      2  CA        23.6700   98.2300   63.3710 C.3    85  GLN85       0.1566
      3  C         22.5350   97.9360   64.3500 C.2    85  GLN85       0.2260
      4  O         22.2720   98.7210   65.2590 O.2    85  GLN85      -0.2867
      5  CB        25.0180   97.8960   64.0130 C.3    85  GLN85       0.0367
      6  CG        25.1510   96.4610   64.4760 C.3    85  GLN85       0.0905
      7  CD        26.5890   96.0730   64.7220 C.2    85  GLN85       0.2608
      8  OE1       27.2560   95.5510   63.8340 O.2    85  GLN85      -0.2717
      9  NE2       27.0800   96.3320   65.9280 N.am   85  GLN85      -0.0878
     10  N         25.1120   88.7300   61.2140 N.3   116  LEU116     -0.1231
     11  CA        25.6040   87.9100   62.3150 C.3   116  LEU116      0.1693
     12  C         24.3960   87.5420   63.1800 C.2   116  LEU116      0.2593
     13  O         23.2940   88.0450   62.9570 O.2   116  LEU116     -0.2718
     14  CB        26.6410   88.6880   63.1370 C.3   116  LEU116      0.0284
     15  CG        27.8380   89.2950   62.3860 C.3   116  LEU116      0.0019
     16  CD1       27.4410   90.5880   61.6890 C.3   116  LEU116      0.0001
     17  CD2       28.9670   89.5670   63.3590 C.3   116  LEU116      0.0001
     18  N         24.5790   86.6150   64.1170 N.am  117  SER117     -0.1938
     19  CA        23.4610   86.1530   64.9370 C.3   117  SER117      0.2055
     20  C         22.9420   87.2310   65.8860 C.2   117  SER117      0.2644
     21  O         21.7320   87.3830   66.0560 O.2   117  SER117     -0.2714
     22  CB        23.8480   84.9010   65.7290 C.3   117  SER117      0.2130
     23  OG        24.8040   85.1850   66.7310 O.3   117  SER117     -0.2179
     24  N         23.8570   88.0160   66.4480 N.am  118  GLY118     -0.1939
     25  CA        23.4760   89.0090   67.4380 C.3   118  GLY118      0.2014
     26  C         23.5090   90.4480   66.9590 C.2   118  GLY118      0.2638
     27  O         23.1690   91.3590   67.7180 O.2   118  GLY118     -0.2714
     28  N         23.9080   90.6610   65.7070 N.am  119  ARG119     -0.1977
     29  CA        24.0230   91.9980   65.1650 C.3   119  ARG119      0.1597
     30  C         23.8630   91.9160   63.6440 C.2   119  ARG119      0.2287
     31  O         24.1730   90.8850   63.0490 O.2   119  ARG119     -0.2864
     32  CB        25.3720   92.6580   65.5140 C.3   119  ARG119      0.0334
     33  CG        26.5400   91.7100   65.2690 C.3   119  ARG119      0.0492
     34  CD        27.9100   92.2560   65.6610 C.3   119  ARG119      0.2205
     35  NE        28.4350   93.1860   64.6900 N.pl3 119  ARG119     -0.0865
     36  CZ        29.6090   93.2450   64.0790 C.cat 119  ARG119      0.5346
     37  NH1       30.6010   92.3740   64.2250 N.pl3 119  ARG119      0.1354
     38  NH2       29.7620   94.2740   63.2460 N.pl3 119  ARG119      0.1354
     39  N         25.9440   99.7710   67.9960 N.3   151  GLY151     -0.1210
     40  CA        27.1650   99.6810   67.2130 C.3   151  GLY151      0.1956
     41  C         28.2610   98.9010   67.9160 C.2   151  GLY151      0.2612
     42  O         29.2810   98.5670   67.3070 O.2   151  GLY151     -0.2717
     43  N         28.0490   98.6190   69.2010 N.am  152  ALA152     -0.1965
     44  CA        28.9840   97.8380   70.0050 C.3   152  ALA152      0.1728
     45  C         28.2750   97.3150   71.2540 C.2   152  ALA152      0.2617
     46  O         27.2770   97.8900   71.6960 O.2   152  ALA152     -0.2715
     47  CB        30.1850   98.6940   70.4010 C.3   152  ALA152      0.0334
     48  N         28.7800   96.2020   71.7880 N.am  153  THR153     -0.1937
     49  CA        28.1920   95.5250   72.9470 C.3   153  THR153      0.2028
     50  C         26.7360   95.1420   72.6680 C.2   153  THR153      0.2642
     51  O         25.8030   95.7020   73.2520 O.2   153  THR153     -0.2714
     52  CB        28.2680   96.4040   74.2240 C.3   153  THR153      0.1808
     53  OG1       29.5690   96.9950   74.3280 O.3   153  THR153     -0.2208
     54  CG2       28.0160   95.5590   75.4650 C.3   153  THR153      0.0379
     55  N         26.5570   94.1750   71.7730 N.am  154  VAL154     -0.1963
     56  CA        25.2540   93.9150   71.1650 C.3   154  VAL154      0.1727
     57  C         24.4310   92.8580   71.8990 C.2   154  VAL154      0.2616
     58  O         23.2520   92.6760   71.6030 O.2   154  VAL154     -0.2715
     59  CB        25.4070   93.4900   69.6820 C.3   154  VAL154      0.0290
     60  CG1       26.1510   94.5650   68.9030 C.3   154  VAL154      0.0023
     61  CG2       26.1390   92.1540   69.5840 C.3   154  VAL154      0.0023
     62  N         25.0670   92.1750   72.8510 N.am  155  HIS155     -0.1959
     63  CA        24.4700   91.0640   73.5950 C.3   155  HIS155      0.1790
     64  C         22.9960   91.2980   73.9400 C.2   155  HIS155      0.2660
     65  O         22.6400   92.3390   74.4920 O.2   155  HIS155     -0.2711
     66  CB        25.2710   90.8320   74.8820 C.3   155  HIS155      0.0785
     67  CG        24.9480   89.5490   75.5820 C.ar  155  HIS155      0.0821
     68  ND1       25.3000   88.3150   75.0780 N.ar  155  HIS155     -0.2267
     69  CD2       24.3740   89.3110   76.7870 C.ar  155  HIS155      0.1154
     70  CE1       24.9650   87.3740   75.9450 C.ar  155  HIS155      0.1986
     71  NE2       24.4010   87.9550   76.9890 N.ar  155  HIS155     -0.2212
     72  N         22.1340   90.3700   73.5310 N.am  156  GLY156     -0.1716
     73  CA        20.7250   90.4980   73.8610 C.2   156  GLY156      0.1480
     74  C         19.7550   89.6720   73.0400 C.2   156  GLY156      0.2820
     75  O         18.7070   89.2780   73.5530 O.2   156  GLY156     -0.2669
     76  N         20.1040   89.3740   71.7890 N.am  157  HIS157     -0.1925
     77  CA        19.1740   88.7240   70.8610 C.3   157  HIS157      0.1790
     78  C         18.6540   87.3750   71.3680 C.2   157  HIS157      0.2621
     79  O         17.4940   87.0250   71.1440 O.2   157  HIS157     -0.2715
     80  CB        19.8250   88.5650   69.4730 C.3   157  HIS157      0.0785
     81  CG        20.7100   87.3610   69.3410 C.ar  157  HIS157      0.0821
     82  ND1       22.0080   87.3370   69.8050 N.ar  157  HIS157     -0.2267
     83  CD2       20.4970   86.1630   68.7520 C.ar  157  HIS157      0.1154
     84  CE1       22.5560   86.1720   69.5060 C.ar  157  HIS157      0.1986
     85  NE2       21.6620   85.4410   68.8680 N.ar  157  HIS157     -0.2212
     86  N         19.4800   86.6800   72.1410 N.am  158  SER158     -0.1950
     87  CA        19.1760   85.3280   72.5980 C.3   158  SER158      0.1924
     88  C         18.9150   85.2670   74.1010 C.2   158  SER158      0.2314
     89  O         18.7030   84.1880   74.6580 O.2   158  SER158     -0.2863
     90  CB        20.3350   84.4000   72.2490 C.3   158  SER158      0.2116
     91  OG        21.5550   84.9750   72.6680 O.3   158  SER158     -0.2180
@<TRIPOS>BOND
     1    10    11    1
     2    16    15    1
     3    11    14    1
     4    11    12    1
     5    15    14    1
     6    15    17    1
     7     1     2    1
     8    13    12    2
     9    31    30    2
    10    12    18   am
    11    38    36    1
    12     2     5    1
    13     2     3    1
    14    30    29    1
    15     8     7    2
    16     5     6    1
    17    36    37    1
    18    36    35    2
    19    18    19    1
    20     3     4    2
    21     6     7    1
    22    35    34    1
    23     7     9   am
    24    19    22    1
    25    19    20    1
    26    29    32    1
    27    29    28    1
    28    33    32    1
    29    33    34    1
    30    28    26   am
    31    22    23    1
    32    20    21    2
    33    20    24   am
    34    24    25    1
    35    26    25    1
    36    26    27    2
    37    40    41    1
    38    40    39    1
    39    42    41    2
    40    41    43   am
    41    83    85   ar
    42    83    81   ar
    43    85    84   ar
    44    60    59    1
    45    43    44    1
    46    81    80    1
    47    81    82   ar
    48    80    77    1
    49    84    82   ar
    50    61    59    1
    51    59    56    1
    52    44    47    1
    53    44    45    1
    54    77    78    1
    55    77    76    1
    56    79    78    2
    57    56    55    1
    58    56    57    1
    59    45    46    2
    60    45    48   am
    61    78    86   am
    62    58    57    2
    63    55    50   am
    64    48    49    1
    65    76    74   am
    66    57    62   am
    67    86    87    1
    68    90    87    1
    69    90    91    1
    70    87    88    1
    71    50    49    1
    72    50    51    2
    73    62    63    1
    74    49    52    1
    75    74    75    2
    76    74    73    1
    77    72    73    2
    78    72    64    1
    79    63    64    1
    80    63    66    1
    81    64    65    2
    82    88    89    2
    83    52    53    1
    84    52    54    1
    85    66    67    1
    86    68    67   ar
    87    68    70   ar
    88    67    69   ar
    89    70    71   ar
    90    69    71   ar
