@<TRIPOS>MOLECULE
tmp/1e6zA00.pdb
 140 136 0 0 0
SMALL
GASTEIGER

@<TRIPOS>ATOM
      1  N         18.8700   47.2850  111.0960 N.3     9  TYR9       -0.1241
      2  CA        17.5660   46.8040  110.6870 C.3     9  TYR9        0.1605
      3  C         16.9930   45.8500  111.7060 C.2     9  TYR9        0.2264
      4  O         17.7050   44.9960  112.2750 O.2     9  TYR9       -0.2867
      5  CB        17.6370   46.0370  109.3600 C.3     9  TYR9        0.0534
      6  CG        17.5540   46.9150  108.1370 C.ar    9  TYR9       -0.0201
      7  CD1       18.6880   47.5310  107.6180 C.ar    9  TYR9       -0.0009
      8  CD2       16.3220   47.1640  107.5320 C.ar    9  TYR9       -0.0009
      9  CE1       18.6130   48.3820  106.5150 C.ar    9  TYR9        0.0417
     10  CE2       16.2210   48.0130  106.4440 C.ar    9  TYR9        0.0417
     11  CZ        17.3660   48.6220  105.9330 C.ar    9  TYR9        0.1957
     12  OH        17.2420   49.4360  104.8200 O.3     9  TYR9       -0.2866
     13  N          9.6300   44.8500  107.0240 N.3    50  PHE50      -0.1241
     14  CA         9.4750   45.7580  105.8790 C.3    50  PHE50       0.1605
     15  C          8.0040   46.0800  105.6670 C.2    50  PHE50       0.2264
     16  O          7.1490   45.2100  105.8830 O.2    50  PHE50      -0.2867
     17  CB         9.8870   45.0950  104.5680 C.3    50  PHE50       0.0534
     18  CG        11.3460   45.0990  104.3060 C.ar   50  PHE50      -0.0203
     19  CD1       12.0070   46.2880  104.0120 C.ar   50  PHE50      -0.0042
     20  CD2       12.0750   43.9230  104.3720 C.ar   50  PHE50      -0.0042
     21  CE1       13.3700   46.2960  103.7980 C.ar   50  PHE50      -0.0003
     22  CE2       13.4300   43.9380  104.1570 C.ar   50  PHE50      -0.0003
     23  CZ        14.0830   45.1210  103.8720 C.ar   50  PHE50      -0.0000
     24  N         12.4360   46.6320  100.0920 N.3    95  GLY95      -0.1210
     25  CA        13.2980   45.4900  100.2850 C.3    95  GLY95       0.1956
     26  C         13.2240   44.6930   98.9900 C.2    95  GLY95       0.2612
     27  O         12.3130   44.9000   98.1800 O.2    95  GLY95      -0.2717
     28  N         14.1700   43.7740   98.8010 N.am   96  TRP96      -0.1962
     29  CA        14.2430   42.9500   97.6010 C.3    96  TRP96       0.1771
     30  C         12.9680   42.1870   97.2490 C.2    96  TRP96       0.2619
     31  O         12.4980   42.2510   96.1080 O.2    96  TRP96      -0.2715
     32  CB        15.3930   41.9430   97.7280 C.3    96  TRP96       0.0590
     33  CG        15.5720   41.1030   96.4790 C.ar   96  TRP96       0.0006
     34  CD1       15.1580   39.8140   96.2960 C.ar   96  TRP96       0.0946
     35  CD2       16.1960   41.5070   95.2450 C.ar   96  TRP96       0.0152
     36  NE1       15.4910   39.3890   95.0320 N.ar   96  TRP96      -0.2442
     37  CE2       16.1290   40.4060   94.3650 C.ar   96  TRP96       0.0810
     38  CE3       16.8070   42.6890   94.8030 C.ar   96  TRP96       0.0012
     39  CZ2       16.6470   40.4480   93.0600 C.ar   96  TRP96       0.0191
     40  CZ3       17.3310   42.7340   93.4910 C.ar   96  TRP96       0.0001
     41  CH2       17.2440   41.6150   92.6450 C.ar   96  TRP96       0.0015
     42  N         12.4270   41.4550   98.2220 N.am   97  TYR97      -0.1974
     43  CA        11.2270   40.6470   97.9880 C.3    97  TYR97       0.1639
     44  C         10.0910   41.4350   97.3360 C.2    97  TYR97       0.2290
     45  O          9.6300   41.0810   96.2550 O.2    97  TYR97      -0.2864
     46  CB        10.7150   40.0330   99.2970 C.3    97  TYR97       0.0560
     47  CG         9.4700   39.1990   99.0960 C.ar   97  TYR97      -0.0198
     48  CD1        9.5370   37.9140   98.5410 C.ar   97  TYR97      -0.0009
     49  CD2        8.2150   39.7120   99.4120 C.ar   97  TYR97      -0.0009
     50  CE1        8.3830   37.1650   98.3090 C.ar   97  TYR97       0.0417
     51  CE2        7.0670   38.9820   99.1830 C.ar   97  TYR97       0.0417
     52  CZ         7.1480   37.7170   98.6350 C.ar   97  TYR97       0.1957
     53  OH         5.9750   37.0330   98.3980 O.3    97  TYR97      -0.2866
     54  N         13.3370   51.5540  100.4380 N.3   141  ASP141     -0.1245
     55  CA        14.2110   50.5200   99.9260 C.3   141  ASP141      0.1561
     56  C         13.6950   49.9180   98.6160 C.2   141  ASP141      0.2260
     57  O         13.3140   48.7460   98.5660 O.2   141  ASP141     -0.2867
     58  CB        14.3820   49.4020  100.9690 C.3   141  ASP141      0.0270
     59  CG        15.5690   48.6180  100.8370 C.3   141  ASP141      0.0020
     60  OD1       15.4670   51.0460  102.3370 O.3   141  ASP141      0.0000
     61  OD2       15.0380   49.1000  103.2410 O.3   141  ASP141      0.0000
     62  N         14.4610   48.3960   95.2650 N.3   143  GLU143     -0.1245
     63  CA        15.6170   47.7890   94.5880 C.3   143  GLU143      0.1567
     64  C         15.3170   47.2890   93.1730 C.2   143  GLU143      0.2260
     65  O         15.0380   46.0990   93.0100 O.2   143  GLU143     -0.2867
     66  CB        16.1570   46.6390   95.4620 C.3   143  GLU143      0.0388
     67  CG        16.4470   47.1120   96.9030 C.3   143  GLU143      0.1160
     68  CD        16.8410   46.0110   97.8910 C.2   143  GLU143      0.3649
     69  OE1       17.4100   44.9790   97.4980 O.co2 143  GLU143     -0.2457
     70  OE2       16.6000   46.1950   99.1020 O.co2 143  GLU143     -0.2457
     71  N         17.8430   52.9370  101.0890 N.3   183  ALA183     -0.1245
     72  CA        18.8820   51.9200  101.0700 C.3   183  ALA183      0.1562
     73  C         19.3360   52.0620   99.6130 C.2   183  ALA183      0.2260
     74  O         18.5260   51.8940   98.6860 O.2   183  ALA183     -0.2867
     75  CB        18.3010   50.5270  101.3150 C.3   183  ALA183      0.0290
     76  N         24.0360   49.5180  100.3320 N.3   211  MET211     -0.1245
     77  CA        23.9730   48.0910  100.6020 C.3   211  MET211      0.1570
     78  C         25.2800   47.4880  100.0780 C.2   211  MET211      0.2261
     79  O         25.3030   46.7540   99.0900 O.2   211  MET211     -0.2867
     80  CB        22.7420   47.4830   99.9120 C.3   211  MET211      0.0387
     81  CG        21.4260   47.9470  100.5880 C.3   211  MET211      0.0595
     82  SD        19.8980   47.2810   99.8840 S.3   211  MET211     -0.1393
     83  CE        19.7080   48.3650   98.4750 C.3   211  MET211      0.0692
     84  N         27.1460   44.9970  100.3780 N.3   213  TYR213     -0.1227
     85  CA        27.2230   43.5920  100.7200 C.3   213  TYR213      0.1736
     86  C         26.4830   42.8200   99.6310 C.2   213  TYR213      0.2595
     87  O         25.9440   43.4200   98.6900 O.2   213  TYR213     -0.2718
     88  CB        26.6540   43.3090  102.1340 C.3   213  TYR213      0.0548
     89  CG        25.4050   44.0890  102.5290 C.ar  213  TYR213     -0.0200
     90  CD1       24.1920   43.8800  101.8940 C.ar  213  TYR213     -0.0009
     91  CD2       25.4410   45.0010  103.5900 C.ar  213  TYR213     -0.0009
     92  CE1       23.0240   44.5620  102.3110 C.ar  213  TYR213      0.0417
     93  CE2       24.2910   45.6880  104.0170 C.ar  213  TYR213      0.0417
     94  CZ        23.0880   45.4610  103.3770 C.ar  213  TYR213      0.1957
     95  OH        21.9480   46.0910  103.8440 O.3   213  TYR213     -0.2866
     96  N         26.4560   41.4960   99.7260 N.am  214  ASP214     -0.1974
     97  CA        25.8370   40.7080   98.6510 C.3   214  ASP214      0.1709
     98  C         26.6060   41.0050   97.3490 C.2   214  ASP214      0.2293
     99  O         26.0500   40.8950   96.2600 O.2   214  ASP214     -0.2864
    100  CB        24.3500   41.0780   98.4450 C.3   214  ASP214      0.1436
    101  CG        23.4860   40.7280   99.6510 C.2   214  ASP214      0.3671
    102  OD1       23.8540   39.7910  100.3980 O.co2 214  ASP214     -0.2456
    103  OD2       22.4370   41.3890   99.8380 O.co2 214  ASP214     -0.2456
    104  N         25.7810   38.7390  108.5100 N.3   291  TYR291     -0.1241
    105  CA        25.5870   37.3720  108.0230 C.3   291  TYR291      0.1605
    106  C         26.6130   37.0570  106.9460 C.2   291  TYR291      0.2264
    107  O         27.1760   37.9630  106.3270 O.2   291  TYR291     -0.2867
    108  CB        24.1870   37.2060  107.3970 C.3   291  TYR291      0.0534
    109  CG        23.9900   38.1060  106.2070 C.ar  291  TYR291     -0.0201
    110  CD1       23.6750   39.4600  106.3740 C.ar  291  TYR291     -0.0009
    111  CD2       24.2200   37.6330  104.9150 C.ar  291  TYR291     -0.0009
    112  CE1       23.6120   40.3350  105.2740 C.ar  291  TYR291      0.0417
    113  CE2       24.1580   38.4700  103.8260 C.ar  291  TYR291      0.0417
    114  CZ        23.8640   39.8250  104.0050 C.ar  291  TYR291      0.1957
    115  OH        23.9180   40.6570  102.9190 O.3   291  TYR291     -0.2866
    116  N         27.6830   34.3510  103.4840 N.3   293  ARG293     -0.1245
    117  CA        27.1310   33.5800  102.3720 C.3   293  ARG293      0.1563
    118  C         28.0120   32.3360  102.1920 C.2   293  ARG293      0.2260
    119  O         29.2530   32.4340  102.1860 O.2   293  ARG293     -0.2867
    120  CB        27.0980   34.4510  101.1000 C.3   293  ARG293      0.0307
    121  CG        26.0700   35.6020  101.2200 C.3   293  ARG293      0.0489
    122  CD        25.6890   36.2390   99.8670 C.3   293  ARG293      0.2205
    123  NE        24.4810   37.0670   99.9600 N.pl3 293  ARG293     -0.0865
    124  CZ        23.2410   36.6070   99.7990 C.cat 293  ARG293      0.5346
    125  NH1       23.0350   35.3170   99.5290 N.pl3 293  ARG293      0.1354
    126  NH2       22.2070   37.4320   99.9360 N.pl3 293  ARG293      0.1354
    127  N         22.4700   44.8620  108.3470 N.3   402  TRP402     -0.1241
    128  CA        21.3800   43.9150  108.2350 C.3   402  TRP402      0.1605
    129  C         21.8850   42.5930  108.8100 C.2   402  TRP402      0.2264
    130  O         22.7960   42.0080  108.2270 O.2   402  TRP402     -0.2867
    131  CB        21.0360   43.7030  106.7640 C.3   402  TRP402      0.0550
    132  CG        20.0220   42.6050  106.5560 C.ar  402  TRP402      0.0003
    133  CD1       20.2690   41.2590  106.4160 C.ar  402  TRP402      0.0946
    134  CD2       18.5970   42.7570  106.5040 C.ar  402  TRP402      0.0152
    135  NE1       19.0820   40.5720  106.2820 N.ar  402  TRP402     -0.2442
    136  CE2       18.0410   41.4640  106.3310 C.ar  402  TRP402      0.0810
    137  CE3       17.7360   43.8600  106.5870 C.ar  402  TRP402      0.0012
    138  CZ2       16.6550   41.2460  106.2320 C.ar  402  TRP402      0.0191
    139  CZ3       16.3580   43.6430  106.4870 C.ar  402  TRP402      0.0001
    140  CH2       15.8380   42.3410  106.3120 C.ar  402  TRP402      0.0015
@<TRIPOS>BOND
     1    41    39   ar
     2    41    40   ar
     3    65    64    2
     4    39    37   ar
     5    64    63    1
     6    40    38   ar
     7    37    36   ar
     8    37    35   ar
     9    63    62    1
    10    63    66    1
    11    38    35   ar
    12    36    34   ar
    13    35    33   ar
    14    66    67    1
    15    31    30    2
    16    45    44    2
    17    99    98    2
    18    34    33   ar
    19    33    32    1
    20    67    68    1
    21    30    29    1
    22    30    42   am
    23    44    43    1
    24    98    97    1
    25    69    68   ar
    26    29    32    1
    27    29    28    1
    28    68    70   ar
    29    43    42    1
    30    43    46    1
    31    27    26    2
    32    50    48   ar
    33    50    52   ar
    34    53    52    1
    35   100    97    1
    36   100   101    1
    37    83    82    1
    38    48    47   ar
    39    57    56    2
    40    56    55    1
    41    52    51   ar
    42    97    96    1
    43    74    73    2
    44    87    86    2
    45    28    26   am
    46    26    25    1
    47    79    78    2
    48    47    46    1
    49    47    49   ar
    50    51    49   ar
    51   125   124    1
    52    73    72    1
    53    86    96   am
    54    86    85    1
    55   101   103   ar
    56   101   102   ar
    57   124   126    1
    58   124   123    2
    59   122   123    1
    60   122   121    1
    61    82    81    1
    62    80    81    1
    63    80    77    1
    64    55    54    1
    65    55    58    1
    66    78    77    1
    67    24    25    1
    68    76    77    1
    69    84    85    1
    70    85    88    1
    71    59    58    1
    72    72    71    1
    73    72    75    1
    74   120   121    1
    75   120   117    1
    76    90    92   ar
    77    90    89   ar
    78    88    89    1
    79   119   118    2
    80   118   117    1
    81    92    94   ar
    82   117   116    1
    83    89    91   ar
    84   115   114    1
    85    94    95    1
    86    94    93   ar
    87    91    93   ar
    88    21    23   ar
    89    21    19   ar
    90   113   114   ar
    91   113   111   ar
    92    23    22   ar
    93   114   112   ar
    94    19    18   ar
    95    22    20   ar
    96    18    20   ar
    97    18    17    1
    98    17    14    1
    99    12    11    1
   100   111   109   ar
   101   112   110   ar
   102    15    14    1
   103    15    16    2
   104    14    13    1
   105    11    10   ar
   106    11     9   ar
   107   109   110   ar
   108   109   108    1
   109   138   140   ar
   110   138   136   ar
   111   135   136   ar
   112   135   133   ar
   113   140   139   ar
   114   107   106    2
   115   136   134   ar
   116   133   132   ar
   117    10     8   ar
   118   139   137   ar
   119   134   132   ar
   120   134   137   ar
   121     9     7   ar
   122   132   131    1
   123   131   128    1
   124   106   105    1
   125   108   105    1
   126     8     6   ar
   127     7     6   ar
   128   105   104    1
   129     6     5    1
   130   130   129    2
   131   128   127    1
   132   128   129    1
   133     5     2    1
   134     2     1    1
   135     2     3    1
   136     3     4    2
