@<TRIPOS>MOLECULE
tmp/1e6zA01.pdb
 148 145 0 0 0
SMALL
GASTEIGER

@<TRIPOS>ATOM
      1  N         14.1700   43.7740   98.8010 N.3    96  TRP96      -0.1241
      2  CA        14.2430   42.9500   97.6010 C.3    96  TRP96       0.1605
      3  C         12.9680   42.1870   97.2490 C.2    96  TRP96       0.2264
      4  O         12.4980   42.2510   96.1080 O.2    96  TRP96      -0.2867
      5  CB        15.3930   41.9430   97.7280 C.3    96  TRP96       0.0550
      6  CG        15.5720   41.1030   96.4790 C.ar   96  TRP96       0.0003
      7  CD1       15.1580   39.8140   96.2960 C.ar   96  TRP96       0.0946
      8  CD2       16.1960   41.5070   95.2450 C.ar   96  TRP96       0.0152
      9  NE1       15.4910   39.3890   95.0320 N.ar   96  TRP96      -0.2442
     10  CE2       16.1290   40.4060   94.3650 C.ar   96  TRP96       0.0810
     11  CE3       16.8070   42.6890   94.8030 C.ar   96  TRP96       0.0012
     12  CZ2       16.6470   40.4480   93.0600 C.ar   96  TRP96       0.0191
     13  CZ3       17.3310   42.7340   93.4910 C.ar   96  TRP96       0.0001
     14  CH2       17.2440   41.6150   92.6450 C.ar   96  TRP96       0.0015
     15  N         14.4610   48.3960   95.2650 N.3   143  GLU143     -0.1231
     16  CA        15.6170   47.7890   94.5880 C.3   143  GLU143      0.1699
     17  C         15.3170   47.2890   93.1730 C.2   143  GLU143      0.2592
     18  O         15.0380   46.0990   93.0100 O.2   143  GLU143     -0.2718
     19  CB        16.1570   46.6390   95.4620 C.3   143  GLU143      0.0402
     20  CG        16.4470   47.1120   96.9030 C.3   143  GLU143      0.1161
     21  CD        16.8410   46.0110   97.8910 C.2   143  GLU143      0.3649
     22  OE1       17.4100   44.9790   97.4980 O.co2 143  GLU143     -0.2457
     23  OE2       16.6000   46.1950   99.1020 O.co2 143  GLU143     -0.2457
     24  N         15.3420   48.1530   92.1480 N.am  144  TYR144     -0.1976
     25  CA        15.6890   49.5870   92.2070 C.3   144  TYR144      0.1639
     26  C         14.9520   50.3050   91.0650 C.2   144  TYR144      0.2290
     27  O         14.6460   49.6950   90.0510 O.2   144  TYR144     -0.2864
     28  CB        17.1870   49.8060   91.9270 C.3   144  TYR144      0.0560
     29  CG        18.1230   49.0750   92.8530 C.ar  144  TYR144     -0.0198
     30  CD1       18.3360   47.7110   92.7100 C.ar  144  TYR144     -0.0009
     31  CD2       18.7460   49.7350   93.9190 C.ar  144  TYR144     -0.0009
     32  CE1       19.1280   47.0050   93.5990 C.ar  144  TYR144      0.0417
     33  CE2       19.5560   49.0380   94.8210 C.ar  144  TYR144      0.0417
     34  CZ        19.7380   47.6650   94.6510 C.ar  144  TYR144      0.1957
     35  OH        20.5130   46.9440   95.5250 O.3   144  TYR144     -0.2866
     36  N         26.6010   48.4720   94.6490 N.3   187  GLY187     -0.1225
     37  CA        27.3130   47.8630   93.5310 C.3   187  GLY187      0.1811
     38  C         26.9730   48.6050   92.2400 C.2   187  GLY187      0.2280
     39  O         25.8360   49.0400   92.0290 O.2   187  GLY187     -0.2866
     40  N         26.3930   47.8140   89.0450 N.3   189  PHE189     -0.1227
     41  CA        25.3330   47.3570   88.1470 C.3   189  PHE189      0.1736
     42  C         23.9940   47.9810   88.4790 C.2   189  PHE189      0.2595
     43  O         23.3860   48.6410   87.6310 O.2   189  PHE189     -0.2718
     44  CB        25.2770   45.8310   88.1870 C.3   189  PHE189      0.0547
     45  CG        26.5560   45.1960   87.7140 C.ar  189  PHE189     -0.0202
     46  CD1       26.9170   45.2540   86.3630 C.ar  189  PHE189     -0.0042
     47  CD2       27.4080   44.5610   88.6100 C.ar  189  PHE189     -0.0042
     48  CE1       28.1150   44.6820   85.9200 C.ar  189  PHE189     -0.0003
     49  CE2       28.6210   43.9790   88.1800 C.ar  189  PHE189     -0.0003
     50  CZ        28.9680   44.0400   86.8320 C.ar  189  PHE189     -0.0000
     51  N         23.5240   47.7710   89.7040 N.am  190  PHE190     -0.1976
     52  CA        22.2670   48.3770   90.1250 C.3   190  PHE190      0.1639
     53  C         22.4420   49.8930   90.2360 C.2   190  PHE190      0.2290
     54  O         21.5280   50.6470   89.9170 O.2   190  PHE190     -0.2864
     55  CB        21.8180   47.8090   91.4810 C.3   190  PHE190      0.0560
     56  CG        21.3320   46.3740   91.4130 C.ar  190  PHE190     -0.0200
     57  CD1       20.4080   45.9790   90.4360 C.ar  190  PHE190     -0.0042
     58  CD2       21.7350   45.4500   92.3630 C.ar  190  PHE190     -0.0042
     59  CE1       19.8910   44.6770   90.4180 C.ar  190  PHE190     -0.0003
     60  CE2       21.2310   44.1470   92.3580 C.ar  190  PHE190     -0.0003
     61  CZ        20.3060   43.7590   91.3880 C.ar  190  PHE190     -0.0000
     62  N         24.0360   49.5180  100.3320 N.3   211  MET211     -0.1245
     63  CA        23.9730   48.0910  100.6020 C.3   211  MET211      0.1570
     64  C         25.2800   47.4880  100.0780 C.2   211  MET211      0.2261
     65  O         25.3030   46.7540   99.0900 O.2   211  MET211     -0.2867
     66  CB        22.7420   47.4830   99.9120 C.3   211  MET211      0.0387
     67  CG        21.4260   47.9470  100.5880 C.3   211  MET211      0.0595
     68  SD        19.8980   47.2810   99.8840 S.3   211  MET211     -0.1393
     69  CE        19.7080   48.3650   98.4750 C.3   211  MET211      0.0692
     70  N         26.4560   41.4960   99.7260 N.3   214  ASP214     -0.1225
     71  CA        25.8370   40.7080   98.6510 C.3   214  ASP214      0.1805
     72  C         26.6060   41.0050   97.3490 C.2   214  ASP214      0.2597
     73  O         26.0500   40.8950   96.2600 O.2   214  ASP214     -0.2718
     74  CB        24.3500   41.0780   98.4450 C.3   214  ASP214      0.1424
     75  CG        23.4860   40.7280   99.6510 C.2   214  ASP214      0.3668
     76  OD1       23.8540   39.7910  100.3980 O.co2 214  ASP214     -0.2456
     77  OD2       22.4370   41.3890   99.8380 O.co2 214  ASP214     -0.2456
     78  N         27.8790   41.3960   97.4680 N.am  215  LEU215     -0.1979
     79  CA        28.6930   41.6940   96.2900 C.3   215  LEU215      0.1596
     80  C         29.3020   40.4030   95.7180 C.2   215  LEU215      0.2287
     81  O         30.1290   40.4370   94.7990 O.2   215  LEU215     -0.2864
     82  CB        29.7940   42.6980   96.6420 C.3   215  LEU215      0.0297
     83  CG        29.2840   44.0280   97.2070 C.3   215  LEU215      0.0022
     84  CD1       30.4750   44.9310   97.4660 C.3   215  LEU215      0.0001
     85  CD2       28.2760   44.6930   96.2190 C.3   215  LEU215      0.0001
     86  N         24.9340   32.9670   92.7610 N.3   219  TRP219     -0.1227
     87  CA        24.5300   33.2890   91.3880 C.3   219  TRP219      0.1737
     88  C         25.7470   33.6140   90.5370 C.2   219  TRP219      0.2595
     89  O         25.6550   33.6710   89.3010 O.2   219  TRP219     -0.2718
     90  CB        23.5430   34.4710   91.3660 C.3   219  TRP219      0.0564
     91  CG        24.0240   35.6510   92.1420 C.ar  219  TRP219      0.0003
     92  CD1       24.8470   36.6550   91.7010 C.ar  219  TRP219      0.0946
     93  CD2       23.7650   35.9220   93.5200 C.ar  219  TRP219      0.0152
     94  NE1       25.1150   37.5300   92.7280 N.ar  219  TRP219     -0.2442
     95  CE2       24.4640   37.1010   93.8540 C.ar  219  TRP219      0.0810
     96  CE3       23.0090   35.2790   94.5120 C.ar  219  TRP219      0.0012
     97  CZ2       24.4300   37.6490   95.1380 C.ar  219  TRP219      0.0191
     98  CZ3       22.9780   35.8250   95.7790 C.ar  219  TRP219      0.0001
     99  CH2       23.6850   36.9980   96.0820 C.ar  219  TRP219      0.0015
    100  N         26.8880   33.8570   91.1780 N.am  220  GLU220     -0.1979
    101  CA        28.1030   34.1300   90.4160 C.3   220  GLU220      0.1602
    102  C         28.8300   32.8000   90.2500 C.2   220  GLU220      0.2287
    103  O         28.7060   31.9050   91.1000 O.2   220  GLU220     -0.2864
    104  CB        29.0250   35.1220   91.1390 C.3   220  GLU220      0.0415
    105  CG        28.4240   36.5000   91.4100 C.3   220  GLU220      0.1163
    106  CD        28.2290   37.3430   90.1600 C.2   220  GLU220      0.3649
    107  OE1       28.8190   37.0020   89.1070 O.co2 220  GLU220     -0.2457
    108  OE2       27.4950   38.3660   90.2340 O.co2 220  GLU220     -0.2457
    109  N         34.8180   44.8690   92.6200 N.3   264  LEU264     -0.1245
    110  CA        33.5310   45.1720   93.2290 C.3   264  LEU264      0.1561
    111  C         33.7070   45.0890   94.7540 C.2   264  LEU264      0.2260
    112  O         33.5650   44.0210   95.3650 O.2   264  LEU264     -0.2867
    113  CB        32.5060   44.1400   92.7540 C.3   264  LEU264      0.0270
    114  CG        31.0420   44.3740   93.1390 C.3   264  LEU264      0.0019
    115  CD1       30.5770   45.6510   92.4730 C.3   264  LEU264      0.0001
    116  CD2       30.1780   43.1910   92.6950 C.3   264  LEU264      0.0001
    117  N         27.6830   34.3510  103.4840 N.3   293  ARG293     -0.1245
    118  CA        27.1310   33.5800  102.3720 C.3   293  ARG293      0.1563
    119  C         28.0120   32.3360  102.1920 C.2   293  ARG293      0.2260
    120  O         29.2530   32.4340  102.1860 O.2   293  ARG293     -0.2867
    121  CB        27.0980   34.4510  101.1000 C.3   293  ARG293      0.0307
    122  CG        26.0700   35.6020  101.2200 C.3   293  ARG293      0.0489
    123  CD        25.6890   36.2390   99.8670 C.3   293  ARG293      0.2205
    124  NE        24.4810   37.0670   99.9600 N.pl3 293  ARG293     -0.0865
    125  CZ        23.2410   36.6070   99.7990 C.cat 293  ARG293      0.5346
    126  NH1       23.0350   35.3170   99.5290 N.pl3 293  ARG293      0.1354
    127  NH2       22.2070   37.4320   99.9360 N.pl3 293  ARG293      0.1354
    128  N         21.9110   28.9590   92.7760 N.3   313  GLY313     -0.1210
    129  CA        21.7870   30.3860   92.9880 C.3   313  GLY313      0.1956
    130  C         20.3640   30.9210   93.0250 C.2   313  GLY313      0.2612
    131  O         20.1650   32.0880   93.3380 O.2   313  GLY313     -0.2717
    132  N         19.3710   30.0880   92.7280 N.am  314  GLU314     -0.1965
    133  CA        17.9800   30.5560   92.7080 C.3   314  GLU314      0.1733
    134  C         17.3180   30.7480   94.0640 C.2   314  GLU314      0.2616
    135  O         17.7690   30.2050   95.0580 O.2   314  GLU314     -0.2715
    136  CB        17.0950   29.5910   91.9030 C.3   314  GLU314      0.0429
    137  CG        17.5360   29.2940   90.4690 C.3   314  GLU314      0.1163
    138  CD        18.7050   28.3190   90.3780 C.2   314  GLU314      0.3649
    139  OE1       18.9730   27.5560   91.3450 O.co2 314  GLU314     -0.2457
    140  OE2       19.3520   28.3170   89.3160 O.co2 314  GLU314     -0.2457
    141  N         16.2300   31.5230   94.0770 N.am  315  ASP315     -0.1971
    142  CA        15.4130   31.7620   95.2720 C.3   315  ASP315      0.1709
    143  C         14.0000   31.2890   94.8950 C.2   315  ASP315      0.2293
    144  O         13.4790   31.6650   93.8420 O.2   315  ASP315     -0.2864
    145  CB        15.2890   33.2460   95.6460 C.3   315  ASP315      0.1436
    146  CG        16.6020   33.8850   96.0300 C.2   315  ASP315      0.3671
    147  OD1       17.4900   33.1850   96.5520 O.co2 315  ASP315     -0.2456
    148  OD2       16.7300   35.1100   95.8200 O.co2 315  ASP315     -0.2456
@<TRIPOS>BOND
     1    48    46   ar
     2    48    50   ar
     3    46    45   ar
     4    50    49   ar
     5    43    42    2
     6    45    44    1
     7    45    47   ar
     8    41    44    1
     9    41    42    1
    10    41    40    1
    11    49    47   ar
    12    42    51   am
    13   107   106   ar
    14    89    88    2
    15   140   138   ar
    16    51    52    1
    17    54    53    2
    18    27    26    2
    19    52    53    1
    20    52    55    1
    21   106   108   ar
    22   106   105    1
    23   102   101    1
    24   102   103    2
    25   138   137    1
    26   138   139   ar
    27   101   104    1
    28   101   100    1
    29    59    57   ar
    30    59    61   ar
    31    57    56   ar
    32   137   136    1
    33    88   100   am
    34    88    87    1
    35    26    25    1
    36   104   105    1
    37    90    87    1
    38    90    91    1
    39    87    86    1
    40    61    60   ar
    41    56    55    1
    42    56    58   ar
    43    92    91   ar
    44    92    94   ar
    45   136   133    1
    46    28    25    1
    47    28    29    1
    48    39    38    2
    49    91    93   ar
    50    24    25    1
    51    24    17   am
    52    38    37    1
    53    60    58   ar
    54   115   114    1
    55   109   110    1
    56    14    12   ar
    57    14    13   ar
    58   116   114    1
    59   133   132    1
    60   133   134    1
    61    30    29   ar
    62    30    32   ar
    63   132   130   am
    64    94    95   ar
    65   113   114    1
    66   113   110    1
    67   128   129    1
    68    29    31   ar
    69   129   130    1
    70    18    17    2
    71   130   131    2
    72    12    10   ar
    73    17    16    1
    74   110   111    1
    75    13    11   ar
    76    93    95   ar
    77    93    96   ar
    78    37    36    1
    79    32    34   ar
    80   144   143    2
    81    95    97   ar
    82    31    33   ar
    83   134   141   am
    84   134   135    2
    85   141   142    1
    86    10     9   ar
    87    10     8   ar
    88    96    98   ar
    89    16    15    1
    90    16    19    1
    91    34    33   ar
    92    34    35    1
    93   111   112    2
    94    81    80    2
    95    11     8   ar
    96   143   142    1
    97     9     7   ar
    98    97    99   ar
    99     8     6   ar
   100   142   145    1
   101    19    20    1
   102   145   146    1
   103    80    79    1
   104    98    99   ar
   105   148   146   ar
   106   146   147   ar
   107     4     3    2
   108    85    83    1
   109    73    72    2
   110    79    82    1
   111    79    78    1
   112     7     6   ar
   113     6     5    1
   114    82    83    1
   115    20    21    1
   116    83    84    1
   117     3     2    1
   118    72    78   am
   119    72    71    1
   120    22    21   ar
   121     2     5    1
   122     2     1    1
   123    21    23   ar
   124    74    71    1
   125    74    75    1
   126    69    68    1
   127    71    70    1
   128    65    64    2
   129   126   125    1
   130    75    77   ar
   131    75    76   ar
   132   125   127    1
   133   125   124    2
   134   123   124    1
   135   123   122    1
   136    68    67    1
   137    66    67    1
   138    66    63    1
   139    64    63    1
   140    62    63    1
   141   121   122    1
   142   121   118    1
   143   120   119    2
   144   119   118    1
   145   118   117    1
