@<TRIPOS>MOLECULE
tmp/1e6zB01.pdb
 100 97 0 0 0
SMALL
GASTEIGER

@<TRIPOS>ATOM
      1  N         42.5100   79.3040   55.4130 N.3    96  TRP96      -0.1241
      2  CA        43.2740   79.2550   56.6600 C.3    96  TRP96       0.1605
      3  C         43.7370   80.6320   57.1690 C.2    96  TRP96       0.2264
      4  O         43.4620   80.9960   58.3040 O.2    96  TRP96      -0.2867
      5  CB        44.4870   78.3340   56.4980 C.3    96  TRP96       0.0550
      6  CG        45.2950   78.2320   57.7710 C.ar   96  TRP96       0.0003
      7  CD1       46.4610   78.9000   58.0700 C.ar   96  TRP96       0.0946
      8  CD2       44.9390   77.5050   58.9480 C.ar   96  TRP96       0.0152
      9  NE1       46.8370   78.6360   59.3610 N.ar   96  TRP96      -0.2442
     10  CE2       45.9220   77.7840   59.9260 C.ar   96  TRP96       0.0810
     11  CE3       43.8800   76.6480   59.2760 C.ar   96  TRP96       0.0012
     12  CZ2       45.8740   77.2380   61.2110 C.ar   96  TRP96       0.0191
     13  CZ3       43.8300   76.1030   60.5600 C.ar   96  TRP96       0.0001
     14  CH2       44.8240   76.4020   61.5120 C.ar   96  TRP96       0.0015
     15  N         37.8030   77.7380   58.8010 N.3   143  GLU143     -0.1231
     16  CA        38.6230   76.6920   59.4060 C.3   143  GLU143      0.1699
     17  C         39.0440   77.0110   60.8500 C.2   143  GLU143      0.2592
     18  O         40.1470   77.5310   61.0700 O.2   143  GLU143     -0.2718
     19  CB        39.8750   76.4780   58.5410 C.3   143  GLU143      0.0402
     20  CG        39.5280   76.0550   57.0990 C.3   143  GLU143      0.1161
     21  CD        40.7240   75.9780   56.1860 C.2   143  GLU143      0.3649
     22  OE1       41.8380   75.6920   56.6680 O.co2 143  GLU143     -0.2457
     23  OE2       40.5380   76.2020   54.9780 O.co2 143  GLU143     -0.2457
     24  N         38.2020   76.7090   61.8390 N.am  144  TYR144     -0.1976
     25  CA        36.8780   76.0880   61.6910 C.3   144  TYR144      0.1639
     26  C         36.0050   76.5760   62.8430 C.2   144  TYR144      0.2290
     27  O         36.5110   76.8800   63.9210 O.2   144  TYR144     -0.2864
     28  CB        36.9460   74.5530   61.8670 C.3   144  TYR144      0.0560
     29  CG        37.9060   73.8410   60.9700 C.ar  144  TYR144     -0.0198
     30  CD1       39.2760   73.9020   61.1950 C.ar  144  TYR144     -0.0009
     31  CD2       37.4490   73.1730   59.8430 C.ar  144  TYR144     -0.0009
     32  CE1       40.1750   73.3210   60.3060 C.ar  144  TYR144      0.0417
     33  CE2       38.3330   72.5810   58.9510 C.ar  144  TYR144      0.0417
     34  CZ        39.6980   72.6640   59.1850 C.ar  144  TYR144      0.1957
     35  OH        40.5700   72.1250   58.2760 O.3   144  TYR144     -0.2866
     36  N         40.1960   68.6000   63.8950 N.3   190  PHE190     -0.1241
     37  CA        39.3600   69.7490   63.5960 C.3   190  PHE190      0.1605
     38  C         37.9100   69.3240   63.4060 C.2   190  PHE190      0.2264
     39  O         36.9900   70.0370   63.8240 O.2   190  PHE190     -0.2867
     40  CB        39.8580   70.4890   62.3550 C.3   190  PHE190      0.0534
     41  CG        41.1350   71.2260   62.5830 C.ar  190  PHE190     -0.0203
     42  CD1       41.2250   72.1700   63.6020 C.ar  190  PHE190     -0.0042
     43  CD2       42.2540   70.9790   61.7890 C.ar  190  PHE190     -0.0042
     44  CE1       42.4130   72.8610   63.8310 C.ar  190  PHE190     -0.0003
     45  CE2       43.4510   71.6650   62.0110 C.ar  190  PHE190     -0.0003
     46  CZ        43.5250   72.6070   63.0350 C.ar  190  PHE190     -0.0000
     47  N         47.2290   67.4370   54.0670 N.3   214  ASP214     -0.1239
     48  CA        47.8570   68.0500   55.2370 C.3   214  ASP214      0.1674
     49  C         47.6510   67.1320   56.4450 C.2   214  ASP214      0.2266
     50  O         47.6090   67.5900   57.5890 O.2   214  ASP214     -0.2867
     51  CB        47.2760   69.4290   55.5490 C.3   214  ASP214      0.1410
     52  CG        47.5710   70.4350   54.4680 C.2   214  ASP214      0.3668
     53  OD1       48.5520   70.2380   53.7100 O.co2 214  ASP214     -0.2456
     54  OD2       46.8220   71.4330   54.3840 O.co2 214  ASP214     -0.2456
     55  N         55.2460   69.7000   61.4020 N.3   219  TRP219     -0.1241
     56  CA        54.8220   69.9760   62.7660 C.3   219  TRP219      0.1605
     57  C         54.6420   68.6650   63.5320 C.2   219  TRP219      0.2264
     58  O         54.4730   68.6720   64.7430 O.2   219  TRP219     -0.2867
     59  CB        53.5300   70.7990   62.7690 C.3   219  TRP219      0.0550
     60  CG        52.4410   70.1970   61.9420 C.ar  219  TRP219      0.0003
     61  CD1       51.5510   69.2360   62.3290 C.ar  219  TRP219      0.0946
     62  CD2       52.1860   70.4510   60.5550 C.ar  219  TRP219      0.0152
     63  NE1       50.7580   68.8680   61.2620 N.ar  219  TRP219     -0.2442
     64  CE2       51.1310   69.5930   60.1590 C.ar  219  TRP219      0.0810
     65  CE3       52.7530   71.3130   59.6040 C.ar  219  TRP219      0.0012
     66  CZ2       50.6250   69.5710   58.8490 C.ar  219  TRP219      0.0191
     67  CZ3       52.2420   71.2910   58.2860 C.ar  219  TRP219      0.0001
     68  CH2       51.1920   70.4210   57.9310 C.ar  219  TRP219      0.0015
     69  N         54.6880   67.7660   50.5520 N.3   293  ARG293     -0.1245
     70  CA        55.3350   68.3350   51.7360 C.3   293  ARG293      0.1563
     71  C         56.6750   67.6200   51.9620 C.2   293  ARG293      0.2260
     72  O         56.7510   66.3810   51.9320 O.2   293  ARG293     -0.2867
     73  CB        54.4200   68.2020   52.9700 C.3   293  ARG293      0.0307
     74  CG        53.3360   69.2990   53.0370 C.3   293  ARG293      0.0489
     75  CD        52.3940   69.1530   54.2180 C.3   293  ARG293      0.2205
     76  NE        51.3010   70.1210   54.1840 N.pl3 293  ARG293     -0.0865
     77  CZ        51.4460   71.4360   54.3400 C.cat 293  ARG293      0.5346
     78  NH1       52.6560   71.9550   54.5630 N.pl3 293  ARG293      0.1354
     79  NH2       50.3860   72.2440   54.2250 N.pl3 293  ARG293      0.1354
     80  N         58.6660   73.1750   61.9790 N.3   313  GLY313     -0.1210
     81  CA        57.2380   72.9930   61.7570 C.3   313  GLY313      0.1956
     82  C         56.4160   74.2720   61.8650 C.2   313  GLY313      0.2615
     83  O         55.2230   74.2810   61.5560 O.2   313  GLY313     -0.2717
     84  N         57.0580   75.3520   62.2960 N.am  314  GLU314     -0.1920
     85  CA        56.4010   76.6420   62.4560 C.3   314  GLU314      0.1944
     86  C         56.2430   77.4160   61.1430 C.2   314  GLU314      0.2658
     87  O         56.9270   77.1450   60.1590 O.2   314  GLU314     -0.2711
     88  CB        57.1810   77.5030   63.4670 C.2   314  GLU314     -0.0002
     89  CG        58.7040   77.5750   63.2920 C.2   314  GLU314     -0.0282
     90  CD        59.4220   78.6150   63.9940 C.3   314  GLU314      0.0304
     91  OE1       59.5340   75.4620   62.5970 O.3   314  GLU314      0.0000
     92  OE2       59.8140   75.9880   64.6960 O.3   314  GLU314      0.0000
     93  N         55.3330   78.3860   61.1470 N.am  315  ASP315     -0.1969
     94  CA        55.0710   79.2380   59.9920 C.3   315  ASP315      0.1709
     95  C         55.1690   80.7050   60.4000 C.2   315  ASP315      0.2293
     96  O         54.5900   81.1180   61.4020 O.2   315  ASP315     -0.2864
     97  CB        53.6740   78.9620   59.4320 C.3   315  ASP315      0.1436
     98  CG        53.6750   77.8840   58.3780 C.2   315  ASP315      0.3671
     99  OD1       54.3830   76.8730   58.5510 O.co2 315  ASP315     -0.2456
    100  OD2       52.9580   78.0450   57.3730 O.co2 315  ASP315     -0.2456
@<TRIPOS>BOND
     1    69    70    1
     2    70    71    1
     3    70    73    1
     4    72    71    2
     5    73    74    1
     6    74    75    1
     7    53    52   ar
     8    47    48    1
     9    76    75    1
    10    76    77    2
    11    79    77    1
    12    77    78    1
    13    54    52   ar
    14    52    51    1
    15    23    21   ar
    16    48    51    1
    17    48    49    1
    18     1     2    1
    19    21    22   ar
    20    21    20    1
    21    49    50    2
    22     5     2    1
    23     5     6    1
    24     2     3    1
    25    20    19    1
    26     3     4    2
    27   100    98   ar
    28     6     7   ar
    29     6     8   ar
    30    68    67   ar
    31    68    66   ar
    32     7     9   ar
    33    35    34    1
    34    67    65   ar
    35    98    99   ar
    36    98    97    1
    37    19    16    1
    38    15    16    1
    39    66    64   ar
    40     8    11   ar
    41     8    10   ar
    42    33    34   ar
    43    33    31   ar
    44    34    32   ar
    45    11    13   ar
    46     9    10   ar
    47    16    17    1
    48    97    94    1
    49    65    62   ar
    50    31    29   ar
    51    10    12   ar
    52    94    95    1
    53    94    93    1
    54    64    62   ar
    55    64    63   ar
    56    87    86    2
    57    32    30   ar
    58    95    96    2
    59    62    60   ar
    60    13    14   ar
    61    17    18    2
    62    17    24   am
    63    29    30   ar
    64    29    28    1
    65    86    93   am
    66    86    85    1
    67    12    14   ar
    68    63    61   ar
    69    55    56    1
    70    83    82    2
    71    25    24    1
    72    25    28    1
    73    25    26    1
    74    81    82    1
    75    81    80    1
    76    43    45   ar
    77    43    41   ar
    78    82    84   am
    79    60    61   ar
    80    60    59    1
    81    45    46   ar
    82    84    85    1
    83    40    41    1
    84    40    37    1
    85    85    88    1
    86    41    42   ar
    87    56    59    1
    88    56    57    1
    89    26    27    2
    90    46    44   ar
    91    89    88    2
    92    89    90    1
    93    38    37    1
    94    38    39    2
    95    57    58    2
    96    37    36    1
    97    42    44   ar
