@<TRIPOS>MOLECULE
tmp/1e72A04.pdb
 90 86 0 0 0
SMALL
GASTEIGER

@<TRIPOS>ATOM
      1  N         37.8260  102.6330   46.2160 N.3   286  GLY286     -0.1225
      2  CA        37.4700  101.3010   45.7000 C.3   286  GLY286      0.1811
      3  C         37.9220  100.2900   46.7320 C.2   286  GLY286      0.2280
      4  O         37.1800   99.4310   47.2430 O.2   286  GLY286     -0.2866
      5  N         35.2190   98.2020   48.6640 N.3   290  ASN290     -0.1240
      6  CA        35.0180   96.9580   47.9710 C.3   290  ASN290      0.1653
      7  C         36.1570   95.9790   48.0210 C.2   290  ASN290      0.2266
      8  O         35.9850   94.8580   47.5410 O.2   290  ASN290     -0.2867
      9  CB        34.7120   97.3450   46.5150 C.3   290  ASN290      0.1155
     10  CG        33.9650   96.1790   45.9240 C.2   290  ASN290      0.2627
     11  OD1       32.9510   95.6200   46.3190 O.2   290  ASN290     -0.2716
     12  ND2       34.6250   95.7430   44.8480 N.am  290  ASN290     -0.0877
     13  N         38.8560   96.2010   46.2430 N.3   292  THR292     -0.1203
     14  CA        39.5040   96.0970   44.9370 C.3   292  THR292      0.1994
     15  C         39.7470   97.4840   44.3550 C.2   292  THR292      0.2618
     16  O         39.0190   98.4200   44.6920 O.2   292  THR292     -0.2717
     17  CB        38.5930   95.3680   43.9190 C.3   292  THR292      0.1784
     18  OG1       37.3900   96.1210   43.7410 O.3   292  THR292     -0.2211
     19  CG2       38.2710   93.9470   44.3470 C.3   292  THR292      0.0376
     20  N         40.7330   97.6030   43.4910 N.am  293  TYR293     -0.1962
     21  CA        40.9170   98.8540   42.7910 C.3   293  TYR293      0.1756
     22  C         39.8670   99.0100   41.6870 C.2   293  TYR293      0.2461
     23  O         39.3510   97.9860   41.1880 O.2   293  TYR293     -0.2730
     24  CB        42.3110   98.8620   42.1570 C.3   293  TYR293      0.0574
     25  CG        43.4460   98.9240   43.1620 C.ar  293  TYR293     -0.0198
     26  CD1       43.5850  100.0840   43.9610 C.ar  293  TYR293     -0.0009
     27  CD2       44.3380   97.8800   43.3180 C.ar  293  TYR293     -0.0009
     28  CE1       44.6270  100.1480   44.8770 C.ar  293  TYR293      0.0417
     29  CE2       45.3840   97.9740   44.2190 C.ar  293  TYR293      0.0417
     30  CZ        45.5230   99.1050   44.9820 C.ar  293  TYR293      0.1957
     31  OH        46.5450   99.2310   45.9110 O.3   293  TYR293     -0.2866
     32  N         39.6120  100.2270   41.2670 N.am  294  PRO294     -0.2716
     33  CA        38.6660  100.4550   40.1720 C.3   294  PRO294      0.1536
     34  C         39.0830   99.7070   38.9180 C.2   294  PRO294      0.2598
     35  O         40.2630   99.5990   38.6110 O.2   294  PRO294     -0.2715
     36  CB        38.7310  101.9440   39.9050 C.3   294  PRO294      0.0310
     37  CG        39.1700  102.5320   41.2320 C.3   294  PRO294      0.0237
     38  CD        40.1310  101.5010   41.8160 C.3   294  PRO294      0.0939
     39  N         38.0860   99.2310   38.1700 N.am  295  GLN295     -0.1978
     40  CA        38.3900   98.5020   36.9580 C.3   295  GLN295      0.1601
     41  C         39.2300   99.3140   35.9770 C.2   295  GLN295      0.2287
     42  O         40.1110   98.7370   35.3300 O.2   295  GLN295     -0.2864
     43  CB        37.1110   98.0430   36.2980 C.3   295  GLN295      0.0394
     44  CG        37.3880   97.0540   35.1590 C.3   295  GLN295      0.0908
     45  CD        37.9440   95.7430   35.6650 C.2   295  GLN295      0.2608
     46  OE1       37.3800   95.1410   36.6060 O.2   295  GLN295     -0.2717
     47  NE2       39.0260   95.2630   35.0990 N.am  295  GLN295     -0.0878
     48  N         42.7230   98.8900   37.0400 N.3   298  ILE298     -0.1231
     49  CA        43.1470   97.5320   36.7420 C.3   298  ILE298      0.1692
     50  C         43.5340   97.4130   35.2770 C.2   298  ILE298      0.2592
     51  O         44.5850   96.9120   34.9110 O.2   298  ILE298     -0.2718
     52  CB        42.0830   96.5130   37.1090 C.3   298  ILE298      0.0266
     53  CG1       41.8900   96.5140   38.6280 C.3   298  ILE298      0.0019
     54  CG2       42.4190   95.1190   36.5910 C.3   298  ILE298      0.0020
     55  CD1       40.7470   95.6900   39.1280 C.3   298  ILE298      0.0001
     56  N         42.7120   97.9690   34.3940 N.am  299  ASP299     -0.1974
     57  CA        42.8900   97.8440   32.9710 C.3   299  ASP299      0.1709
     58  C         44.0860   98.6530   32.4860 C.2   299  ASP299      0.2293
     59  O         44.8870   98.2110   31.6480 O.2   299  ASP299     -0.2864
     60  CB        41.6480   98.3510   32.2250 C.3   299  ASP299      0.1436
     61  CG        40.4070   97.5020   32.3810 C.2   299  ASP299      0.3671
     62  OD1       40.5070   96.3750   32.8780 O.co2 299  ASP299     -0.2456
     63  OD2       39.3160   97.9660   31.9520 O.co2 299  ASP299     -0.2456
     64  N         48.0520   93.4190   43.4550 N.3   307  SER307     -0.1217
     65  CA        46.8050   92.7370   43.7570 C.3   307  SER307      0.1889
     66  C         46.6920   92.5810   45.2780 C.2   307  SER307      0.2288
     67  O         47.7060   92.3880   45.9230 O.2   307  SER307     -0.2866
     68  CB        46.7730   91.3360   43.1280 C.3   307  SER307      0.2089
     69  OG        48.0020   90.6800   43.3770 O.3   307  SER307     -0.2183
     70  N         28.0770  107.1800   45.8260 N.3   397  LYS397     -0.1245
     71  CA        28.9720  106.1880   45.2480 C.3   397  LYS397      0.1561
     72  C         29.5880  105.2730   46.2950 C.2   397  LYS397      0.2260
     73  O         29.9190  104.1340   46.0330 O.2   397  LYS397     -0.2867
     74  CB        30.0980  106.9170   44.4880 C.3   397  LYS397      0.0271
     75  CG        31.1760  106.0680   43.8250 C.3   397  LYS397      0.0035
     76  CD        30.7990  105.6860   42.4280 C.3   397  LYS397      0.0206
     77  CE        31.9400  104.8850   41.7860 C.3   397  LYS397      0.1093
     78  NZ        31.3140  104.3330   40.5360 N.3   397  LYS397     -0.1314
     79  N         28.5170  104.4460   49.6080 N.3   399  TYR399     -0.1241
     80  CA        27.7240  103.8230   50.6470 C.3   399  TYR399      0.1605
     81  C         27.4590  104.6880   51.8600 C.2   399  TYR399      0.2264
     82  O         27.4530  104.1930   52.9990 O.2   399  TYR399     -0.2867
     83  CB        28.4060  102.5000   51.0660 C.3   399  TYR399      0.0534
     84  CG        28.5580  101.5710   49.8820 C.ar  399  TYR399     -0.0201
     85  CD1       27.4930  100.8150   49.4090 C.ar  399  TYR399     -0.0009
     86  CD2       29.7480  101.4790   49.2000 C.ar  399  TYR399     -0.0009
     87  CE1       27.6600   99.9550   48.3350 C.ar  399  TYR399      0.0417
     88  CE2       29.9160  100.6530   48.1140 C.ar  399  TYR399      0.0417
     89  CZ        28.8660   99.8930   47.6810 C.ar  399  TYR399      0.1957
     90  OH        29.0200   99.0510   46.6040 O.3   399  TYR399     -0.2866
@<TRIPOS>BOND
     1    59    58    2
     2    63    61   ar
     3    60    61    1
     4    60    57    1
     5    61    62   ar
     6    58    57    1
     7    57    56    1
     8    56    50   am
     9    51    50    2
    10    47    45   am
    11    44    45    1
    12    44    43    1
    13    50    49    1
    14    42    41    2
    15    45    46    2
    16    41    40    1
    17    43    40    1
    18    54    52    1
    19    49    48    1
    20    49    52    1
    21    40    39    1
    22    52    53    1
    23    39    34   am
    24    35    34    2
    25    53    55    1
    26    34    33    1
    27    36    33    1
    28    36    37    1
    29    33    32    1
    30    78    77    1
    31    23    22    2
    32    37    38    1
    33    32    22   am
    34    32    38    1
    35    22    21    1
    36    77    76    1
    37    24    21    1
    38    24    25    1
    39    76    75    1
    40    21    20    1
    41    68    69    1
    42    68    65    1
    43    25    27   ar
    44    25    26   ar
    45    27    29   ar
    46    64    65    1
    47    20    15   am
    48    18    17    1
    49    65    66    1
    50    75    74    1
    51    17    19    1
    52    17    14    1
    53    26    28   ar
    54    29    30   ar
    55    15    16    2
    56    15    14    1
    57    74    71    1
    58    12    10   am
    59    28    30   ar
    60    14    13    1
    61    30    31    1
    62    71    70    1
    63    71    72    1
    64    66    67    2
    65     2     1    1
    66     2     3    1
    67    10    11    2
    68    10     9    1
    69    73    72    2
    70     9     6    1
    71    90    89    1
    72     3     4    2
    73     8     7    2
    74    89    88   ar
    75    89    87   ar
    76     6     7    1
    77     6     5    1
    78    88    86   ar
    79    87    85   ar
    80    86    84   ar
    81    85    84   ar
    82    79    80    1
    83    84    83    1
    84    80    83    1
    85    80    81    1
    86    81    82    2
