@<TRIPOS>MOLECULE
tmp/1e72A07.pdb
 124 123 0 0 0
SMALL
GASTEIGER

@<TRIPOS>ATOM
      1  N         54.4500  120.6230   60.7830 N.3    37  GLN37      -0.1245
      2  CA        54.2170  121.9930   60.4470 C.3    37  GLN37       0.1566
      3  C         54.2130  122.9500   61.6250 C.2    37  GLN37       0.2260
      4  O         54.4730  124.1230   61.3830 O.2    37  GLN37      -0.2867
      5  CB        52.9080  122.1370   59.6450 C.3    37  GLN37       0.0367
      6  CG        52.9710  121.3170   58.3700 C.3    37  GLN37       0.0905
      7  CD        51.6640  121.4170   57.5770 C.2    37  GLN37       0.2608
      8  OE1       50.7640  120.5890   57.7560 O.2    37  GLN37      -0.2717
      9  NE2       51.5770  122.4150   56.7260 N.am   37  GLN37      -0.0878
     10  N         50.8200  112.1070   59.6060 N.3   139  HIS139     -0.1226
     11  CA        50.7340  113.2570   58.7090 C.3   139  HIS139      0.1752
     12  C         52.1060  113.4290   58.0310 C.2   139  HIS139      0.2596
     13  O         52.6800  114.5050   58.0240 O.2   139  HIS139     -0.2718
     14  CB        50.2460  114.5080   59.4090 C.3   139  HIS139      0.0759
     15  CG        49.5870  115.5390   58.5620 C.ar  139  HIS139      0.0818
     16  ND1       48.2710  115.9710   58.7070 N.ar  139  HIS139     -0.2268
     17  CD2       50.0940  116.2700   57.5430 C.ar  139  HIS139      0.1154
     18  CE1       48.0340  116.9270   57.8590 C.ar  139  HIS139      0.1986
     19  NE2       49.1280  117.1060   57.1230 N.ar  139  HIS139     -0.2212
     20  N         52.5520  112.3630   57.3820 N.am  140  TRP140     -0.1976
     21  CA        53.6920  112.3000   56.4720 C.3   140  TRP140      0.1640
     22  C         55.0680  112.2460   57.0910 C.2   140  TRP140      0.2290
     23  O         56.0400  112.0140   56.3630 O.2   140  TRP140     -0.2864
     24  CB        53.6170  113.4610   55.4820 C.3   140  TRP140      0.0576
     25  CG        52.3300  113.5220   54.6810 C.ar  140  TRP140      0.0006
     26  CD1       51.3870  112.5770   54.5510 C.ar  140  TRP140      0.0946
     27  CD2       51.9120  114.6420   53.8940 C.ar  140  TRP140      0.0152
     28  NE1       50.3720  113.0270   53.7270 N.ar  140  TRP140     -0.2442
     29  CE2       50.6830  114.2790   53.2890 C.ar  140  TRP140      0.0810
     30  CE3       52.4660  115.8840   53.6000 C.ar  140  TRP140      0.0012
     31  CZ2       50.0100  115.1460   52.4450 C.ar  140  TRP140      0.0191
     32  CZ3       51.8030  116.7350   52.7350 C.ar  140  TRP140      0.0001
     33  CH2       50.5660  116.3480   52.1750 C.ar  140  TRP140      0.0015
     34  N         47.1990  110.7910   56.6250 N.3   184  ASN184     -0.1225
     35  CA        46.7250  111.9950   55.9610 C.3   184  ASN184      0.1785
     36  C         46.7670  111.9300   54.4520 C.2   184  ASN184      0.2597
     37  O         47.8600  111.7270   53.9010 O.2   184  ASN184     -0.2718
     38  CB        47.5460  113.2210   56.3960 C.3   184  ASN184      0.1169
     39  CG        46.9970  114.4880   55.7810 C.2   184  ASN184      0.2627
     40  OD1       45.8520  114.8580   56.0440 O.2   184  ASN184     -0.2716
     41  ND2       47.8450  115.2010   55.0470 N.am  184  ASN184     -0.0877
     42  N         45.6730  112.1930   53.7670 N.am  185  GLN185     -0.1979
     43  CA        45.5600  112.2280   52.3140 C.3   185  GLN185      0.1601
     44  C         46.2940  111.1050   51.6130 C.2   185  GLN185      0.2287
     45  O         47.4170  111.2900   51.0930 O.2   185  GLN185     -0.2864
     46  CB        46.0910  113.5600   51.7870 C.3   185  GLN185      0.0394
     47  CG        45.3690  114.7560   52.3870 C.3   185  GLN185      0.0908
     48  CD        45.6980  116.0720   51.7320 C.2   185  GLN185      0.2608
     49  OE1       45.0850  117.0990   52.0750 O.2   185  GLN185     -0.2717
     50  NE2       46.6570  116.2020   50.8140 N.am  185  GLN185     -0.0878
     51  N         42.3010  113.1820   50.4420 N.3   255  ILE255     -0.1245
     52  CA        42.2110  114.4670   49.7650 C.3   255  ILE255      0.1561
     53  C         41.1170  114.2800   48.6980 C.2   255  ILE255      0.2260
     54  O         41.0880  113.2860   47.9550 O.2   255  ILE255     -0.2867
     55  CB        43.5200  114.9520   49.1560 C.3   255  ILE255      0.0252
     56  CG1       43.2690  116.2630   48.4090 C.3   255  ILE255      0.0019
     57  CG2       44.2050  113.9210   48.3060 C.3   255  ILE255      0.0019
     58  CD1       42.8220  117.4410   49.2600 C.3   255  ILE255      0.0001
     59  N         39.7630  121.2310   49.0500 N.3   328  TYR328     -0.1241
     60  CA        40.2070  122.5720   48.7690 C.3   328  TYR328      0.1605
     61  C         39.7260  123.0990   47.4140 C.2   328  TYR328      0.2264
     62  O         39.3580  124.2830   47.3870 O.2   328  TYR328     -0.2867
     63  CB        41.7400  122.6180   48.7560 C.3   328  TYR328      0.0534
     64  CG        42.3510  122.4220   50.1380 C.ar  328  TYR328     -0.0201
     65  CD1       42.6700  121.1700   50.6520 C.ar  328  TYR328     -0.0009
     66  CD2       42.5630  123.5440   50.9090 C.ar  328  TYR328     -0.0009
     67  CE1       43.2320  121.0420   51.9160 C.ar  328  TYR328      0.0417
     68  CE2       43.1250  123.4000   52.1620 C.ar  328  TYR328      0.0417
     69  CZ        43.4370  122.1820   52.6710 C.ar  328  TYR328      0.1957
     70  OH        44.0550  122.1010   53.8990 O.3   328  TYR328     -0.2866
     71  N         39.9370  119.1250   56.6130 N.3   407  GLU407     -0.1245
     72  CA        40.6840  120.2850   56.2000 C.3   407  GLU407      0.1567
     73  C         39.8580  121.0550   55.1470 C.2   407  GLU407      0.2260
     74  O         39.2940  120.3940   54.2860 O.2   407  GLU407     -0.2867
     75  CB        42.0610  120.0460   55.5280 C.3   407  GLU407      0.0388
     76  CG        43.0460  119.3250   56.4110 C.3   407  GLU407      0.1160
     77  CD        44.3950  119.0880   55.8870 C.2   407  GLU407      0.3649
     78  OE1       44.7390  119.8130   54.8790 O.co2 407  GLU407     -0.2457
     79  OE2       45.2210  118.2560   56.2850 O.co2 407  GLU407     -0.2457
     80  N         41.4880  124.4780   57.8340 N.3   455  TRP455     -0.1298
     81  CA        42.9400  124.4770   57.7390 C.3   455  TRP455      0.1291
     82  C         43.2280  125.9800   57.8990 C.3   455  TRP455      0.2013
     83  O         42.8440  126.6480   56.9090 O.3   455  TRP455     -0.2188
     84  CB        43.5350  123.8260   56.5170 C.3   455  TRP455      0.0497
     85  CG        45.0370  123.7680   56.6360 C.ar  455  TRP455     -0.0001
     86  CD1       45.9410  124.6410   56.0790 C.ar  455  TRP455      0.0946
     87  CD2       45.7650  122.8310   57.4120 C.ar  455  TRP455      0.0152
     88  NE1       47.1940  124.2690   56.4640 N.ar  455  TRP455     -0.2442
     89  CE2       47.1410  123.1600   57.2490 C.ar  455  TRP455      0.0810
     90  CE3       45.4120  121.7010   58.1580 C.ar  455  TRP455      0.0012
     91  CZ2       48.1460  122.4000   57.8560 C.ar  455  TRP455      0.0191
     92  CZ3       46.4250  120.9530   58.7710 C.ar  455  TRP455      0.0001
     93  CH2       47.7590  121.3430   58.6160 C.ar  455  TRP455      0.0015
     94  N         54.3550  125.5700   55.6170 N.3   462  GLU462     -0.1231
     95  CA        53.5480  124.8980   54.6100 C.3   462  GLU462      0.1699
     96  C         54.4340  123.9860   53.7650 C.2   462  GLU462      0.2592
     97  O         55.4190  124.4450   53.1670 O.2   462  GLU462     -0.2718
     98  CB        52.8970  125.9560   53.7260 C.3   462  GLU462      0.0402
     99  CG        52.2650  125.4480   52.4440 C.3   462  GLU462      0.1161
    100  CD        51.1070  124.5550   52.6710 C.2   462  GLU462      0.3649
    101  OE1       50.7110  124.3310   53.8400 O.co2 462  GLU462     -0.2457
    102  OE2       50.5730  124.0550   51.6570 O.co2 462  GLU462     -0.2457
    103  N         54.0300  122.7270   53.6860 N.am  463  PHE463     -0.1976
    104  CA        54.7900  121.7780   52.8630 C.3   463  PHE463      0.1639
    105  C         55.0130  122.3850   51.4940 C.2   463  PHE463      0.2290
    106  O         54.0800  122.9090   50.8820 O.2   463  PHE463     -0.2864
    107  CB        54.0760  120.4550   52.7220 C.3   463  PHE463      0.0560
    108  CG        53.9160  119.6900   54.0030 C.ar  463  PHE463     -0.0200
    109  CD1       55.0320  119.1060   54.5910 C.ar  463  PHE463     -0.0042
    110  CD2       52.6880  119.5650   54.6380 C.ar  463  PHE463     -0.0042
    111  CE1       54.9190  118.3560   55.7310 C.ar  463  PHE463     -0.0003
    112  CE2       52.5740  118.8070   55.7860 C.ar  463  PHE463     -0.0003
    113  CZ        53.6930  118.2120   56.3150 C.ar  463  PHE463     -0.0000
    114  N         48.3620  130.1670   56.0400 N.3   471  PHE471     -0.1241
    115  CA        47.0580  129.5510   56.0070 C.3   471  PHE471      0.1605
    116  C         46.2830  129.7280   57.3030 C.2   471  PHE471      0.2264
    117  O         45.1050  129.3130   57.3880 O.2   471  PHE471     -0.2867
    118  CB        47.1130  128.0280   55.7860 C.3   471  PHE471      0.0534
    119  CG        47.2140  127.5770   54.3680 C.ar  471  PHE471     -0.0203
    120  CD1       48.4300  127.3940   53.7320 C.ar  471  PHE471     -0.0042
    121  CD2       46.0230  127.2630   53.6880 C.ar  471  PHE471     -0.0042
    122  CE1       48.4540  126.9100   52.4370 C.ar  471  PHE471     -0.0003
    123  CE2       46.0870  126.7920   52.3670 C.ar  471  PHE471     -0.0003
    124  CZ        47.3180  126.6360   51.7560 C.ar  471  PHE471     -0.0000
@<TRIPOS>BOND
     1    62    61    2
     2    61    60    1
     3    54    53    2
     4    57    55    1
     5    56    55    1
     6    56    58    1
     7    53    52    1
     8    63    60    1
     9    63    64    1
    10    60    59    1
    11    55    52    1
    12    52    51    1
    13    64    65   ar
    14    64    66   ar
    15    65    67   ar
    16    50    48   am
    17   106   105    2
    18    66    68   ar
    19    45    44    2
    20   105   104    1
    21    44    43    1
    22   102   100   ar
    23    48    49    2
    24    48    47    1
    25   124   123   ar
    26   124   122   ar
    27    46    43    1
    28    46    47    1
    29    67    69   ar
    30    68    69   ar
    31    33    31   ar
    32    33    32   ar
    33    43    42    1
    34   123   121   ar
    35   122   120   ar
    36    99   100    1
    37    99    98    1
    38    31    29   ar
    39    69    70    1
    40   100   101   ar
    41   107   104    1
    42   107   108    1
    43    32    30   ar
    44   104   103    1
    45    97    96    2
    46    29    28   ar
    47    29    27   ar
    48    30    27   ar
    49   103    96   am
    50   121   119   ar
    51    98    95    1
    52    28    26   ar
    53   120   119   ar
    54    96    95    1
    55    42    36   am
    56    27    25   ar
    57    37    36    2
    58   108   109   ar
    59   108   110   ar
    60    74    73    2
    61   119   118    1
    62    36    35    1
    63    26    25   ar
    64   109   111   ar
    65    95    94    1
    66   110   112   ar
    67    25    24    1
    68    78    77   ar
    69    41    39   am
    70    73    72    1
    71    24    21    1
    72    75    72    1
    73    75    76    1
    74   111   113   ar
    75    39    40    2
    76    39    38    1
    77   118   115    1
    78   112   113   ar
    79    77    79   ar
    80    77    76    1
    81    35    38    1
    82    35    34    1
    83   115   114    1
    84   115   116    1
    85    86    88   ar
    86    86    85   ar
    87    72    71    1
    88    23    22    2
    89    88    89   ar
    90    21    22    1
    91    21    20    1
    92    84    85    1
    93    84    81    1
    94    85    87   ar
    95     9     7   am
    96    83    82    1
    97    19    17   ar
    98    19    18   ar
    99    89    87   ar
   100    89    91   ar
   101   116   117    2
   102    20    12   am
   103    87    90   ar
   104    17    15   ar
   105     7     8    2
   106     7     6    1
   107    81    80    1
   108    81    82    1
   109    91    93   ar
   110    18    16   ar
   111    13    12    2
   112    12    11    1
   113    90    92   ar
   114     6     5    1
   115    15    16   ar
   116    15    14    1
   117    93    92   ar
   118    11    14    1
   119    11    10    1
   120     5     2    1
   121     2     1    1
   122     2     3    1
   123     4     3    2
