@<TRIPOS>MOLECULE
tmp/1e73A07.pdb
 116 116 0 0 0
SMALL
GASTEIGER

@<TRIPOS>ATOM
      1  N         54.4860  120.6610   60.8810 N.3    37  GLN37      -0.1245
      2  CA        54.2600  122.0310   60.5260 C.3    37  GLN37       0.1566
      3  C         54.2730  122.9810   61.7180 C.2    37  GLN37       0.2260
      4  O         54.5420  124.1620   61.5480 O.2    37  GLN37      -0.2867
      5  CB        52.9570  122.1840   59.7180 C.3    37  GLN37       0.0367
      6  CG        52.9990  121.3650   58.4170 C.3    37  GLN37       0.0905
      7  CD        51.6780  121.4810   57.6560 C.2    37  GLN37       0.2608
      8  OE1       50.7900  120.6360   57.8470 O.2    37  GLN37      -0.2717
      9  NE2       51.6300  122.4830   56.8270 N.am   37  GLN37      -0.0878
     10  N         50.8690  112.0790   59.7150 N.3   139  HIS139     -0.1226
     11  CA        50.8030  113.2060   58.8010 C.3   139  HIS139      0.1752
     12  C         52.1430  113.4020   58.1220 C.2   139  HIS139      0.2596
     13  O         52.7080  114.4920   58.1020 O.2   139  HIS139     -0.2718
     14  CB        50.3040  114.4540   59.5080 C.3   139  HIS139      0.0759
     15  CG        49.6670  115.4950   58.6610 C.ar  139  HIS139      0.0818
     16  ND1       48.3750  115.9170   58.8530 N.ar  139  HIS139     -0.2268
     17  CD2       50.1680  116.2720   57.6530 C.ar  139  HIS139      0.1154
     18  CE1       48.0860  116.8750   58.0200 C.ar  139  HIS139      0.1986
     19  NE2       49.1840  117.1020   57.2720 N.ar  139  HIS139     -0.2212
     20  N         52.5880  112.3370   57.4390 N.am  140  TRP140     -0.1976
     21  CA        53.6860  112.2990   56.4980 C.3   140  TRP140      0.1640
     22  C         55.0920  112.2490   57.0970 C.2   140  TRP140      0.2290
     23  O         56.0400  112.0330   56.3670 O.2   140  TRP140     -0.2864
     24  CB        53.6430  113.4550   55.4940 C.3   140  TRP140      0.0576
     25  CG        52.3490  113.5100   54.7180 C.ar  140  TRP140      0.0006
     26  CD1       51.3650  112.6010   54.5630 C.ar  140  TRP140      0.0946
     27  CD2       51.9470  114.6290   53.9110 C.ar  140  TRP140      0.0152
     28  NE1       50.3610  113.0750   53.7410 N.ar  140  TRP140     -0.2442
     29  CE2       50.7150  114.3180   53.3100 C.ar  140  TRP140      0.0810
     30  CE3       52.5250  115.8800   53.6560 C.ar  140  TRP140      0.0012
     31  CZ2       50.0250  115.2000   52.4900 C.ar  140  TRP140      0.0191
     32  CZ3       51.8730  116.7410   52.7910 C.ar  140  TRP140      0.0001
     33  CH2       50.6250  116.4030   52.2240 C.ar  140  TRP140      0.0015
     34  N         47.2580  110.7510   56.6960 N.3   184  ASN184     -0.1225
     35  CA        46.7600  111.9480   56.0270 C.3   184  ASN184      0.1785
     36  C         46.8530  111.8760   54.4950 C.2   184  ASN184      0.2597
     37  O         47.9120  111.5650   53.9390 O.2   184  ASN184     -0.2718
     38  CB        47.5560  113.1570   56.5290 C.3   184  ASN184      0.1169
     39  CG        47.0740  114.4390   55.9000 C.2   184  ASN184      0.2627
     40  OD1       45.9160  114.8230   56.1300 O.2   184  ASN184     -0.2716
     41  ND2       47.8900  115.1490   55.1370 N.am  184  ASN184     -0.0877
     42  N         45.7590  112.2600   53.8150 N.am  185  GLN185     -0.1979
     43  CA        45.6270  112.3430   52.3600 C.3   185  GLN185      0.1601
     44  C         46.3700  111.2200   51.6650 C.2   185  GLN185      0.2287
     45  O         47.4560  111.3580   51.1110 O.2   185  GLN185     -0.2864
     46  CB        46.1970  113.6940   51.8880 C.3   185  GLN185      0.0394
     47  CG        45.4120  114.8930   52.4300 C.3   185  GLN185      0.0908
     48  CD        45.7750  116.2390   51.7940 C.2   185  GLN185      0.2608
     49  OE1       45.1420  117.2230   52.1910 O.2   185  GLN185     -0.2717
     50  NE2       46.7180  116.2890   50.8670 N.am  185  GLN185     -0.0878
     51  N         39.8290  121.2010   49.0220 N.3   328  TYR328     -0.1241
     52  CA        40.2790  122.5440   48.7090 C.3   328  TYR328      0.1605
     53  C         39.7570  123.0880   47.3740 C.2   328  TYR328      0.2264
     54  O         39.3370  124.2510   47.3560 O.2   328  TYR328     -0.2867
     55  CB        41.8140  122.6450   48.7220 C.3   328  TYR328      0.0534
     56  CG        42.3920  122.4430   50.1100 C.ar  328  TYR328     -0.0201
     57  CD1       42.5390  123.5510   50.9310 C.ar  328  TYR328     -0.0009
     58  CD2       42.7460  121.1890   50.6160 C.ar  328  TYR328     -0.0009
     59  CE1       43.0950  123.3810   52.1850 C.ar  328  TYR328      0.0417
     60  CE2       43.2770  121.0460   51.8800 C.ar  328  TYR328      0.0417
     61  CZ        43.4760  122.1700   52.6510 C.ar  328  TYR328      0.1957
     62  OH        43.9850  122.1710   53.9320 O.3   328  TYR328     -0.2866
     63  N         39.9520  119.1350   56.6970 N.3   407  GLU407     -0.1245
     64  CA        40.7520  120.2730   56.2770 C.3   407  GLU407      0.1567
     65  C         39.9730  121.0260   55.1890 C.2   407  GLU407      0.2260
     66  O         39.4600  120.3630   54.2960 O.2   407  GLU407     -0.2867
     67  CB        42.0570  119.8880   55.5730 C.3   407  GLU407      0.0388
     68  CG        43.1830  119.6920   56.5100 C.3   407  GLU407      0.1160
     69  CD        44.4600  119.2830   55.9190 C.2   407  GLU407      0.3649
     70  OE1       45.0990  119.9820   54.9870 O.co2 407  GLU407     -0.2457
     71  OE2       44.9750  118.2510   56.3750 O.co2 407  GLU407     -0.2457
     72  N         41.5000  124.4840   57.9340 N.3   455  TRP455     -0.1298
     73  CA        42.9160  124.5070   57.8480 C.3   455  TRP455      0.1291
     74  C         43.2200  126.0210   57.9650 C.3   455  TRP455      0.2013
     75  O         42.7970  126.7100   57.0330 O.3   455  TRP455     -0.2188
     76  CB        43.5410  123.8600   56.6320 C.3   455  TRP455      0.0497
     77  CG        45.0210  123.8100   56.7490 C.ar  455  TRP455     -0.0001
     78  CD1       45.9440  124.6430   56.1330 C.ar  455  TRP455      0.0946
     79  CD2       45.7490  122.8530   57.5010 C.ar  455  TRP455      0.0152
     80  NE1       47.1910  124.2450   56.4970 N.ar  455  TRP455     -0.2442
     81  CE2       47.1240  123.1480   57.3200 C.ar  455  TRP455      0.0810
     82  CE3       45.4010  121.7780   58.3390 C.ar  455  TRP455      0.0012
     83  CZ2       48.1730  122.4460   57.9290 C.ar  455  TRP455      0.0191
     84  CZ3       46.4360  121.0270   58.8950 C.ar  455  TRP455      0.0001
     85  CH2       47.7620  121.3880   58.7130 C.ar  455  TRP455      0.0015
     86  N         54.4060  125.5280   55.6170 N.3   462  GLU462     -0.1231
     87  CA        53.5920  124.8730   54.5960 C.3   462  GLU462      0.1699
     88  C         54.4520  123.9640   53.7280 C.2   462  GLU462      0.2592
     89  O         55.4250  124.4170   53.1020 O.2   462  GLU462     -0.2718
     90  CB        52.8620  125.9170   53.7330 C.3   462  GLU462      0.0402
     91  CG        52.2050  125.3820   52.4660 C.3   462  GLU462      0.1161
     92  CD        51.0090  124.5200   52.6970 C.2   462  GLU462      0.3649
     93  OE1       50.6800  124.3410   53.9520 O.co2 462  GLU462     -0.2457
     94  OE2       50.4230  123.9270   51.7620 O.co2 462  GLU462     -0.2457
     95  N         54.0760  122.6840   53.6750 N.am  463  PHE463     -0.1976
     96  CA        54.8360  121.7430   52.8560 C.3   463  PHE463      0.1639
     97  C         54.9930  122.3660   51.4620 C.2   463  PHE463      0.2290
     98  O         54.0360  122.8450   50.8440 O.2   463  PHE463     -0.2864
     99  CB        54.0960  120.4290   52.7480 C.3   463  PHE463      0.0560
    100  CG        53.9500  119.6910   54.0410 C.ar  463  PHE463     -0.0200
    101  CD1       55.0750  119.1080   54.6030 C.ar  463  PHE463     -0.0042
    102  CD2       52.7410  119.5700   54.7050 C.ar  463  PHE463     -0.0042
    103  CE1       54.9870  118.3620   55.7840 C.ar  463  PHE463     -0.0003
    104  CE2       52.6610  118.8430   55.8660 C.ar  463  PHE463     -0.0003
    105  CZ        53.7730  118.2480   56.4330 C.ar  463  PHE463     -0.0000
    106  N         48.3940  130.1170   56.0440 N.3   471  PHE471     -0.1241
    107  CA        47.0690  129.5250   56.0350 C.3   471  PHE471      0.1605
    108  C         46.2980  129.7410   57.3320 C.2   471  PHE471      0.2264
    109  O         45.1430  129.3150   57.4520 O.2   471  PHE471     -0.2867
    110  CB        47.1380  128.0050   55.8250 C.3   471  PHE471      0.0534
    111  CG        47.2080  127.5300   54.4010 C.ar  471  PHE471     -0.0203
    112  CD1       48.4160  127.3240   53.7490 C.ar  471  PHE471     -0.0042
    113  CD2       46.0230  127.2410   53.7330 C.ar  471  PHE471     -0.0042
    114  CE1       48.4260  126.8390   52.4370 C.ar  471  PHE471     -0.0003
    115  CE2       46.0310  126.7450   52.4300 C.ar  471  PHE471     -0.0003
    116  CZ        47.2430  126.5530   51.7990 C.ar  471  PHE471     -0.0000
@<TRIPOS>BOND
     1    54    53    2
     2    53    52    1
     3    52    55    1
     4    52    51    1
     5    55    56    1
     6    56    58   ar
     7    56    57   ar
     8    58    60   ar
     9    98    97    2
    10    50    48   am
    11    57    59   ar
    12    45    44    2
    13    97    96    1
    14    44    43    1
    15    94    92   ar
    16    48    49    2
    17    48    47    1
    18   116   115   ar
    19   116   114   ar
    20    60    61   ar
    21    46    43    1
    22    46    47    1
    23    59    61   ar
    24    33    31   ar
    25    33    32   ar
    26    43    42    1
    27   115   113   ar
    28   114   112   ar
    29    91    92    1
    30    91    90    1
    31    31    29   ar
    32    61    62    1
    33    92    93   ar
    34    99    96    1
    35    99   100    1
    36    32    30   ar
    37    96    95    1
    38    89    88    2
    39    29    28   ar
    40    29    27   ar
    41    30    27   ar
    42    95    88   am
    43    88    87    1
    44    90    87    1
    45   113   111   ar
    46    28    26   ar
    47   112   111   ar
    48    42    36   am
    49    27    25   ar
    50    37    36    2
    51   100   101   ar
    52   100   102   ar
    53    66    65    2
    54   111   110    1
    55    36    35    1
    56    26    25   ar
    57    87    86    1
    58   101   103   ar
    59   102   104   ar
    60    25    24    1
    61    70    69   ar
    62    41    39   am
    63    65    64    1
    64    24    21    1
    65    67    64    1
    66    67    68    1
    67   103   105   ar
    68   110   107    1
    69   104   105   ar
    70    39    40    2
    71    39    38    1
    72    69    71   ar
    73    69    68    1
    74    35    38    1
    75    35    34    1
    76   107   106    1
    77   107   108    1
    78    78    80   ar
    79    78    77   ar
    80    64    63    1
    81    23    22    2
    82    80    81   ar
    83    21    22    1
    84    21    20    1
    85    76    77    1
    86    76    73    1
    87    77    79   ar
    88     9     7   am
    89    75    74    1
    90    19    17   ar
    91    19    18   ar
    92    81    79   ar
    93    81    83   ar
    94   108   109    2
    95    20    12   am
    96    79    82   ar
    97    17    15   ar
    98     7     8    2
    99     7     6    1
   100    73    72    1
   101    73    74    1
   102    83    85   ar
   103    18    16   ar
   104    13    12    2
   105    12    11    1
   106    82    84   ar
   107     6     5    1
   108    15    16   ar
   109    15    14    1
   110    85    84   ar
   111    11    14    1
   112    11    10    1
   113     5     2    1
   114     2     1    1
   115     2     3    1
   116     4     3    2
