@<TRIPOS>MOLECULE
tmp/1e73A04.pdb
 90 86 0 0 0
SMALL
GASTEIGER

@<TRIPOS>ATOM
      1  N         37.9120  102.6460   46.2380 N.3   286  GLY286     -0.1225
      2  CA        37.5260  101.2950   45.7420 C.3   286  GLY286      0.1811
      3  C         37.9760  100.2530   46.7510 C.2   286  GLY286      0.2280
      4  O         37.2120   99.3920   47.2480 O.2   286  GLY286     -0.2866
      5  N         35.2730   98.1930   48.6510 N.3   290  ASN290     -0.1240
      6  CA        35.0350   96.9460   47.9580 C.3   290  ASN290      0.1653
      7  C         36.1930   95.9720   48.0140 C.2   290  ASN290      0.2266
      8  O         36.0510   94.8340   47.5830 O.2   290  ASN290     -0.2867
      9  CB        34.7530   97.3260   46.4960 C.3   290  ASN290      0.1155
     10  CG        34.0190   96.1770   45.8840 C.2   290  ASN290      0.2627
     11  OD1       33.0050   95.6250   46.2390 O.2   290  ASN290     -0.2716
     12  ND2       34.7060   95.7080   44.8170 N.am  290  ASN290     -0.0877
     13  N         38.9640   96.1870   46.3000 N.3   292  THR292     -0.1203
     14  CA        39.5700   96.0810   44.9750 C.3   292  THR292      0.1994
     15  C         39.8310   97.4770   44.4020 C.2   292  THR292      0.2618
     16  O         39.0920   98.4030   44.7430 O.2   292  THR292     -0.2717
     17  CB        38.6490   95.3530   43.9550 C.3   292  THR292      0.1784
     18  OG1       37.4360   96.0510   43.7600 O.3   292  THR292     -0.2211
     19  CG2       38.3370   93.9330   44.4080 C.3   292  THR292      0.0376
     20  N         40.8130   97.5670   43.5120 N.am  293  TYR293     -0.1962
     21  CA        40.9640   98.8390   42.8030 C.3   293  TYR293      0.1756
     22  C         39.8980   99.0220   41.7300 C.2   293  TYR293      0.2461
     23  O         39.3680   98.0170   41.1980 O.2   293  TYR293     -0.2730
     24  CB        42.3330   98.8590   42.1430 C.3   293  TYR293      0.0574
     25  CG        43.4500   98.9230   43.1480 C.ar  293  TYR293     -0.0198
     26  CD1       43.6480  100.0570   43.9430 C.ar  293  TYR293     -0.0009
     27  CD2       44.3420   97.9050   43.3210 C.ar  293  TYR293     -0.0009
     28  CE1       44.6770  100.1360   44.8700 C.ar  293  TYR293      0.0417
     29  CE2       45.3820   97.9710   44.2050 C.ar  293  TYR293      0.0417
     30  CZ        45.5600   99.0940   44.9900 C.ar  293  TYR293      0.1957
     31  OH        46.5770   99.2280   45.9120 O.3   293  TYR293     -0.2866
     32  N         39.6210  100.2320   41.2930 N.am  294  PRO294     -0.2716
     33  CA        38.6680  100.4270   40.2080 C.3   294  PRO294      0.1536
     34  C         39.0860   99.6470   38.9650 C.2   294  PRO294      0.2598
     35  O         40.2470   99.5830   38.6240 O.2   294  PRO294     -0.2715
     36  CB        38.6810  101.9300   39.9600 C.3   294  PRO294      0.0310
     37  CG        39.1530  102.5070   41.2940 C.3   294  PRO294      0.0237
     38  CD        40.1650  101.5080   41.8220 C.3   294  PRO294      0.0939
     39  N         38.0830   99.1660   38.1860 N.am  295  GLN295     -0.1978
     40  CA        38.3940   98.4450   36.9890 C.3   295  GLN295      0.1601
     41  C         39.1720   99.2720   35.9790 C.2   295  GLN295      0.2287
     42  O         40.0640   98.6920   35.3370 O.2   295  GLN295     -0.2864
     43  CB        37.0910   98.0020   36.3200 C.3   295  GLN295      0.0394
     44  CG        37.3600   96.9940   35.1960 C.3   295  GLN295      0.0908
     45  CD        37.9390   95.7020   35.7080 C.2   295  GLN295      0.2608
     46  OE1       37.4650   95.1050   36.6830 O.2   295  GLN295     -0.2717
     47  NE2       39.0100   95.2070   35.1000 N.am  295  GLN295     -0.0878
     48  N         42.6470   98.8470   37.0180 N.3   298  ILE298     -0.1231
     49  CA        43.1250   97.4950   36.7360 C.3   298  ILE298      0.1692
     50  C         43.5200   97.3860   35.2650 C.2   298  ILE298      0.2592
     51  O         44.5840   96.8760   34.8970 O.2   298  ILE298     -0.2718
     52  CB        42.0940   96.4570   37.1320 C.3   298  ILE298      0.0266
     53  CG1       41.8780   96.4080   38.6550 C.3   298  ILE298      0.0019
     54  CG2       42.4770   95.0780   36.5840 C.3   298  ILE298      0.0020
     55  CD1       40.6820   95.6230   39.1160 C.3   298  ILE298      0.0001
     56  N         42.6480   97.9070   34.4000 N.am  299  ASP299     -0.1974
     57  CA        42.8540   97.8060   32.9580 C.3   299  ASP299      0.1709
     58  C         44.0240   98.6450   32.4620 C.2   299  ASP299      0.2293
     59  O         44.8070   98.1550   31.6530 O.2   299  ASP299     -0.2864
     60  CB        41.6150   98.2350   32.1890 C.3   299  ASP299      0.1436
     61  CG        40.3320   97.4620   32.3790 C.2   299  ASP299      0.3671
     62  OD1       40.4410   96.3260   32.8580 O.co2 299  ASP299     -0.2456
     63  OD2       39.2540   97.9790   31.9850 O.co2 299  ASP299     -0.2456
     64  N         48.0320   93.4130   43.4230 N.3   307  SER307     -0.1217
     65  CA        46.7820   92.7410   43.7510 C.3   307  SER307      0.1889
     66  C         46.7040   92.5600   45.2600 C.2   307  SER307      0.2288
     67  O         47.7180   92.3880   45.9090 O.2   307  SER307     -0.2866
     68  CB        46.6620   91.3440   43.1090 C.3   307  SER307      0.2089
     69  OG        47.9220   90.7260   43.3060 O.3   307  SER307     -0.2183
     70  N         28.1410  107.1750   45.8880 N.3   397  LYS397     -0.1245
     71  CA        29.0160  106.1650   45.2770 C.3   397  LYS397      0.1561
     72  C         29.6270  105.2550   46.3320 C.2   397  LYS397      0.2260
     73  O         29.9400  104.1210   46.0520 O.2   397  LYS397     -0.2867
     74  CB        30.1430  106.8890   44.5340 C.3   397  LYS397      0.0271
     75  CG        31.2240  106.0650   43.8780 C.3   397  LYS397      0.0035
     76  CD        30.8450  105.5060   42.5680 C.3   397  LYS397      0.0206
     77  CE        32.0900  104.9260   41.8650 C.3   397  LYS397      0.1093
     78  NZ        31.5800  104.1380   40.7180 N.3   397  LYS397     -0.1314
     79  N         28.5480  104.4360   49.6440 N.3   399  TYR399     -0.1241
     80  CA        27.7730  103.8000   50.7000 C.3   399  TYR399      0.1605
     81  C         27.4770  104.6590   51.9210 C.2   399  TYR399      0.2264
     82  O         27.4950  104.2000   53.0700 O.2   399  TYR399     -0.2867
     83  CB        28.4500  102.4670   51.1310 C.3   399  TYR399      0.0534
     84  CG        28.6280  101.5430   49.9420 C.ar  399  TYR399     -0.0201
     85  CD1       27.5520  100.8150   49.4610 C.ar  399  TYR399     -0.0009
     86  CD2       29.8340  101.4500   49.2720 C.ar  399  TYR399     -0.0009
     87  CE1       27.7180   99.9790   48.3600 C.ar  399  TYR399      0.0417
     88  CE2       29.9910  100.6460   48.1500 C.ar  399  TYR399      0.0417
     89  CZ        28.9150   99.9090   47.7210 C.ar  399  TYR399      0.1957
     90  OH        29.0470   99.0850   46.6220 O.3   399  TYR399     -0.2866
@<TRIPOS>BOND
     1    59    58    2
     2    63    61   ar
     3    60    61    1
     4    60    57    1
     5    61    62   ar
     6    58    57    1
     7    57    56    1
     8    56    50   am
     9    51    50    2
    10    47    45   am
    11    44    45    1
    12    44    43    1
    13    50    49    1
    14    42    41    2
    15    45    46    2
    16    41    40    1
    17    43    40    1
    18    54    52    1
    19    49    48    1
    20    49    52    1
    21    40    39    1
    22    52    53    1
    23    39    34   am
    24    35    34    2
    25    53    55    1
    26    34    33    1
    27    36    33    1
    28    36    37    1
    29    33    32    1
    30    78    77    1
    31    23    22    2
    32    32    22   am
    33    32    38    1
    34    37    38    1
    35    22    21    1
    36    77    76    1
    37    24    21    1
    38    24    25    1
    39    76    75    1
    40    21    20    1
    41    68    69    1
    42    68    65    1
    43    25    27   ar
    44    25    26   ar
    45    27    29   ar
    46    64    65    1
    47    20    15   am
    48    65    66    1
    49    18    17    1
    50    75    74    1
    51    26    28   ar
    52    17    19    1
    53    17    14    1
    54    29    30   ar
    55    15    16    2
    56    15    14    1
    57    74    71    1
    58    12    10   am
    59    28    30   ar
    60    14    13    1
    61    30    31    1
    62    66    67    2
    63    71    70    1
    64    71    72    1
    65     2     1    1
    66     2     3    1
    67    10    11    2
    68    10     9    1
    69    73    72    2
    70     9     6    1
    71    90    89    1
    72     3     4    2
    73     8     7    2
    74    89    88   ar
    75    89    87   ar
    76     6     7    1
    77     6     5    1
    78    88    86   ar
    79    87    85   ar
    80    86    84   ar
    81    85    84   ar
    82    79    80    1
    83    84    83    1
    84    80    83    1
    85    80    81    1
    86    81    82    2
