@<TRIPOS>MOLECULE
tmp/1e73A06.pdb
 160 157 0 0 0
SMALL
GASTEIGER

@<TRIPOS>ATOM
      1  N         52.5880  112.3370   57.4390 N.3   140  TRP140     -0.1241
      2  CA        53.6860  112.2990   56.4980 C.3   140  TRP140      0.1605
      3  C         55.0920  112.2490   57.0970 C.2   140  TRP140      0.2264
      4  O         56.0400  112.0330   56.3670 O.2   140  TRP140     -0.2867
      5  CB        53.6430  113.4550   55.4940 C.3   140  TRP140      0.0550
      6  CG        52.3490  113.5100   54.7180 C.ar  140  TRP140      0.0003
      7  CD1       51.3650  112.6010   54.5630 C.ar  140  TRP140      0.0946
      8  CD2       51.9470  114.6290   53.9110 C.ar  140  TRP140      0.0152
      9  NE1       50.3610  113.0750   53.7410 N.ar  140  TRP140     -0.2442
     10  CE2       50.7150  114.3180   53.3100 C.ar  140  TRP140      0.0810
     11  CE3       52.5250  115.8800   53.6560 C.ar  140  TRP140      0.0012
     12  CZ2       50.0250  115.2000   52.4900 C.ar  140  TRP140      0.0191
     13  CZ3       51.8730  116.7410   52.7910 C.ar  140  TRP140      0.0001
     14  CH2       50.6250  116.4030   52.2240 C.ar  140  TRP140      0.0015
     15  N         45.7590  112.2600   53.8150 N.3   185  GLN185     -0.1245
     16  CA        45.6270  112.3430   52.3600 C.3   185  GLN185      0.1566
     17  C         46.3700  111.2200   51.6650 C.2   185  GLN185      0.2260
     18  O         47.4560  111.3580   51.1110 O.2   185  GLN185     -0.2867
     19  CB        46.1970  113.6940   51.8880 C.3   185  GLN185      0.0367
     20  CG        45.4120  114.8930   52.4300 C.3   185  GLN185      0.0905
     21  CD        45.7750  116.2390   51.7940 C.2   185  GLN185      0.2608
     22  OE1       45.1420  117.2230   52.1910 O.2   185  GLN185     -0.2717
     23  NE2       46.7180  116.2890   50.8670 N.am  185  GLN185     -0.0878
     24  N         46.3200  109.9590   48.7940 N.3   187  TYR187     -0.1227
     25  CA        46.8550  110.1560   47.4310 C.3   187  TYR187      0.1736
     26  C         48.1890  110.8710   47.3820 C.2   187  TYR187      0.2596
     27  O         48.9440  110.6650   46.4430 O.2   187  TYR187     -0.2718
     28  CB        45.8270  111.0030   46.6690 C.3   187  TYR187      0.0548
     29  CG        46.1330  111.3920   45.2380 C.ar  187  TYR187     -0.0200
     30  CD1       46.8200  112.5610   44.9660 C.ar  187  TYR187     -0.0009
     31  CD2       45.6790  110.5830   44.1950 C.ar  187  TYR187     -0.0009
     32  CE1       47.0820  112.9170   43.6680 C.ar  187  TYR187      0.0417
     33  CE2       45.9430  110.9490   42.8680 C.ar  187  TYR187      0.0417
     34  CZ        46.6410  112.0990   42.6280 C.ar  187  TYR187      0.1957
     35  OH        46.9290  112.5000   41.3400 O.3   187  TYR187     -0.2866
     36  N         48.4710  111.6860   48.4000 N.am  188  SER188     -0.1952
     37  CA        49.6300  112.5760   48.3160 C.3   188  SER188      0.1924
     38  C         51.0180  111.9960   48.3760 C.2   188  SER188      0.2314
     39  O         51.8220  112.3150   47.4900 O.2   188  SER188     -0.2863
     40  CB        49.4660  113.6260   49.4460 C.3   188  SER188      0.2116
     41  OG        48.2610  114.3850   49.3030 O.3   188  SER188     -0.2180
     42  N         53.2220  112.5960   45.1090 N.3   192  ARG192     -0.1245
     43  CA        54.2440  113.6170   45.2700 C.3   192  ARG192      0.1563
     44  C         55.5410  113.1440   45.8950 C.2   192  ARG192      0.2260
     45  O         56.6290  113.6790   45.5840 O.2   192  ARG192     -0.2867
     46  CB        53.6980  114.7610   46.1210 C.3   192  ARG192      0.0307
     47  CG        52.5070  115.4010   45.4230 C.3   192  ARG192      0.0489
     48  CD        51.8400  116.4290   46.2850 C.3   192  ARG192      0.2205
     49  NE        52.6870  117.5730   46.5410 N.pl3 192  ARG192     -0.0865
     50  CZ        52.6810  118.6460   45.7440 C.cat 192  ARG192      0.5346
     51  NH1       51.8790  118.7150   44.6820 N.pl3 192  ARG192      0.1354
     52  NH2       53.4260  119.6900   46.0110 N.pl3 192  ARG192      0.1354
     53  N         42.3210  113.1810   50.4930 N.3   255  ILE255     -0.1231
     54  CA        42.2570  114.4750   49.8210 C.3   255  ILE255      0.1692
     55  C         41.1670  114.2670   48.7540 C.2   255  ILE255      0.2593
     56  O         41.1420  113.2900   48.0130 O.2   255  ILE255     -0.2718
     57  CB        43.5500  114.9560   49.2300 C.3   255  ILE255      0.0266
     58  CG1       43.3640  116.2910   48.4710 C.3   255  ILE255      0.0019
     59  CG2       44.2690  113.9690   48.3510 C.3   255  ILE255      0.0020
     60  CD1       42.8650  117.4460   49.3360 C.3   255  ILE255      0.0001
     61  N         40.2030  115.2010   48.7480 N.am  256  THR256     -0.1939
     62  CA        39.1870  115.1650   47.7270 C.3   256  THR256      0.2028
     63  C         39.3250  116.3950   46.8550 C.2   256  THR256      0.2642
     64  O         39.7320  117.4640   47.3210 O.2   256  THR256     -0.2714
     65  CB        37.7580  115.0830   48.2980 C.3   256  THR256      0.1808
     66  OG1       37.4240  116.3010   48.9750 O.3   256  THR256     -0.2208
     67  CG2       37.5910  113.9170   49.2860 C.3   256  THR256      0.0379
     68  N         38.8960  116.2430   45.6270 N.am  257  ARG257     -0.1977
     69  CA        38.7050  117.2980   44.6640 C.3   257  ARG257      0.1597
     70  C         37.4180  116.9290   43.9380 C.2   257  ARG257      0.2287
     71  O         37.0770  115.7390   43.8810 O.2   257  ARG257     -0.2864
     72  CB        39.7870  117.3760   43.5810 C.3   257  ARG257      0.0334
     73  CG        41.1600  117.7290   44.1050 C.3   257  ARG257      0.0492
     74  CD        42.2160  117.7140   42.9980 C.3   257  ARG257      0.2205
     75  NE        43.5300  117.8470   43.5990 N.pl3 257  ARG257     -0.0865
     76  CZ        44.6630  117.5380   43.0130 C.cat 257  ARG257      0.5346
     77  NH1       44.6010  117.2440   41.7150 N.pl3 257  ARG257      0.1354
     78  NH2       45.7990  117.5390   43.6880 N.pl3 257  ARG257      0.1354
     79  N         41.6890  109.3440   41.0990 N.3   280  PHE280     -0.1241
     80  CA        42.0180  110.2410   42.2310 C.3   280  PHE280      0.1605
     81  C         41.3370  109.7810   43.5170 C.2   280  PHE280      0.2264
     82  O         42.0020  109.6620   44.5330 O.2   280  PHE280     -0.2867
     83  CB        41.6490  111.6650   41.8580 C.3   280  PHE280      0.0534
     84  CG        42.1660  112.7210   42.8200 C.ar  280  PHE280     -0.0203
     85  CD1       43.4320  113.2470   42.6580 C.ar  280  PHE280     -0.0042
     86  CD2       41.3930  113.1400   43.8760 C.ar  280  PHE280     -0.0042
     87  CE1       43.9140  114.1710   43.5530 C.ar  280  PHE280     -0.0003
     88  CE2       41.8570  114.0940   44.7670 C.ar  280  PHE280     -0.0003
     89  CZ        43.1220  114.6140   44.6070 C.ar  280  PHE280     -0.0000
     90  N         39.8290  121.2010   49.0220 N.3   328  TYR328     -0.1227
     91  CA        40.2790  122.5440   48.7090 C.3   328  TYR328      0.1736
     92  C         39.7570  123.0880   47.3740 C.2   328  TYR328      0.2595
     93  O         39.3370  124.2510   47.3560 O.2   328  TYR328     -0.2718
     94  CB        41.8140  122.6450   48.7220 C.3   328  TYR328      0.0548
     95  CG        42.3920  122.4430   50.1100 C.ar  328  TYR328     -0.0200
     96  CD1       42.5390  123.5510   50.9310 C.ar  328  TYR328     -0.0009
     97  CD2       42.7460  121.1890   50.6160 C.ar  328  TYR328     -0.0009
     98  CE1       43.0950  123.3810   52.1850 C.ar  328  TYR328      0.0417
     99  CE2       43.2770  121.0460   51.8800 C.ar  328  TYR328      0.0417
    100  CZ        43.4760  122.1700   52.6510 C.ar  328  TYR328      0.1957
    101  OH        43.9850  122.1710   53.9320 O.3   328  TYR328     -0.2866
    102  N         39.7950  122.3100   46.3050 N.am  329  PHE329     -0.1976
    103  CA        39.4400  122.8510   45.0020 C.3   329  PHE329      0.1639
    104  C         39.0050  121.7350   44.0360 C.2   329  PHE329      0.2290
    105  O         39.0090  120.5250   44.3250 O.2   329  PHE329     -0.2864
    106  CB        40.6180  123.6860   44.4580 C.3   329  PHE329      0.0560
    107  CG        41.9070  122.9430   44.3290 C.ar  329  PHE329     -0.0200
    108  CD1       42.1350  122.0220   43.3230 C.ar  329  PHE329     -0.0042
    109  CD2       42.9610  123.2070   45.2020 C.ar  329  PHE329     -0.0042
    110  CE1       43.3570  121.3760   43.2340 C.ar  329  PHE329     -0.0003
    111  CE2       44.1770  122.5740   45.1210 C.ar  329  PHE329     -0.0003
    112  CZ        44.3570  121.6350   44.1340 C.ar  329  PHE329     -0.0000
    113  N         42.5490  131.0380   44.1950 N.3   369  PHE369     -0.1227
    114  CA        42.9180  130.2380   45.3590 C.3   369  PHE369      0.1736
    115  C         44.3940  130.3630   45.6980 C.2   369  PHE369      0.2595
    116  O         44.7330  130.4720   46.8850 O.2   369  PHE369     -0.2718
    117  CB        42.6170  128.7540   45.0950 C.3   369  PHE369      0.0547
    118  CG        42.9370  127.8400   46.2630 C.ar  369  PHE369     -0.0202
    119  CD1       42.1150  127.8190   47.3770 C.ar  369  PHE369     -0.0042
    120  CD2       44.0210  126.9950   46.2110 C.ar  369  PHE369     -0.0042
    121  CE1       42.4310  126.9830   48.4570 C.ar  369  PHE369     -0.0003
    122  CE2       44.3180  126.1690   47.2570 C.ar  369  PHE369     -0.0003
    123  CZ        43.5300  126.1810   48.4010 C.ar  369  PHE369     -0.0000
    124  N         45.3020  130.3190   44.7300 N.am  370  GLU370     -0.1979
    125  CA        46.7290  130.3920   44.9910 C.3   370  GLU370      0.1602
    126  C         47.3480  131.0200   43.7480 C.2   370  GLU370      0.2287
    127  O         47.2900  130.4840   42.6460 O.2   370  GLU370     -0.2864
    128  CB        47.3020  128.9890   45.1900 C.3   370  GLU370      0.0415
    129  CG        48.7880  128.8980   45.6000 C.3   370  GLU370      0.1163
    130  CD        49.2920  127.4950   45.3490 C.2   370  GLU370      0.3649
    131  OE1       48.8450  126.6310   46.1390 O.co2 370  GLU370     -0.2457
    132  OE2       50.0900  127.0630   44.4750 O.co2 370  GLU370     -0.2457
    133  N         45.9590  128.6720   40.8070 N.3   380  ILE380     -0.1245
    134  CA        44.8800  127.7840   41.2120 C.3   380  ILE380      0.1561
    135  C         43.6650  128.6480   41.5480 C.2   380  ILE380      0.2260
    136  O         43.7940  129.7240   42.1260 O.2   380  ILE380     -0.2867
    137  CB        45.2250  126.9080   42.4280 C.3   380  ILE380      0.0252
    138  CG1       46.4780  126.0570   42.1010 C.3   380  ILE380      0.0019
    139  CG2       44.0790  125.9720   42.7900 C.3   380  ILE380      0.0019
    140  CD1       46.9380  125.2440   43.2890 C.3   380  ILE380      0.0001
    141  N         54.4060  125.5280   55.6170 N.3   462  GLU462     -0.1245
    142  CA        53.5920  124.8730   54.5960 C.3   462  GLU462      0.1567
    143  C         54.4520  123.9640   53.7280 C.2   462  GLU462      0.2260
    144  O         55.4250  124.4170   53.1020 O.2   462  GLU462     -0.2867
    145  CB        52.8620  125.9170   53.7330 C.3   462  GLU462      0.0388
    146  CG        52.2050  125.3820   52.4660 C.3   462  GLU462      0.1160
    147  CD        51.0090  124.5200   52.6970 C.2   462  GLU462      0.3649
    148  OE1       50.6800  124.3410   53.9520 O.co2 462  GLU462     -0.2457
    149  OE2       50.4230  123.9270   51.7620 O.co2 462  GLU462     -0.2457
    150  N         48.3940  130.1170   56.0440 N.3   471  PHE471     -0.1241
    151  CA        47.0690  129.5250   56.0350 C.3   471  PHE471      0.1605
    152  C         46.2980  129.7410   57.3320 C.2   471  PHE471      0.2264
    153  O         45.1430  129.3150   57.4520 O.2   471  PHE471     -0.2867
    154  CB        47.1380  128.0050   55.8250 C.3   471  PHE471      0.0534
    155  CG        47.2080  127.5300   54.4010 C.ar  471  PHE471     -0.0203
    156  CD1       48.4160  127.3240   53.7490 C.ar  471  PHE471     -0.0042
    157  CD2       46.0230  127.2410   53.7330 C.ar  471  PHE471     -0.0042
    158  CE1       48.4260  126.8390   52.4370 C.ar  471  PHE471     -0.0003
    159  CE2       46.0310  126.7450   52.4300 C.ar  471  PHE471     -0.0003
    160  CZ        47.2430  126.5530   51.7990 C.ar  471  PHE471     -0.0000
@<TRIPOS>BOND
     1   133   134    1
     2    79    80    1
     3   134   135    1
     4   134   137    1
     5    35    34    1
     6   135   136    2
     7    77    76    1
     8    83    80    1
     9    83    84    1
    10   138   137    1
    11   138   140    1
    12    80    81    1
    13   137   139    1
    14    34    33   ar
    15    34    32   ar
    16   127   126    2
    17    85    84   ar
    18    85    87   ar
    19    84    86   ar
    20    33    31   ar
    21    74    75    1
    22    74    73    1
    23    76    75    2
    24    76    78    1
    25   110   108   ar
    26   110   112   ar
    27   108   107   ar
    28    81    82    2
    29    87    89   ar
    30    72    73    1
    31    72    69    1
    32    32    30   ar
    33   126   125    1
    34    86    88   ar
    35    71    70    2
    36    70    69    1
    37   104   105    2
    38   104   103    1
    39   112   111   ar
    40    31    29   ar
    41   113   114    1
    42   107   106    1
    43   107   109   ar
    44   106   103    1
    45   132   130   ar
    46    89    88   ar
    47    69    68    1
    48    51    50    1
    49   124   125    1
    50   124   115   am
    51    30    29   ar
    52   125   128    1
    53   103   102    1
    54   117   114    1
    55   117   118    1
    56    42    43    1
    57   111   109   ar
    58   128   129    1
    59    29    28    1
    60    43    44    1
    61    43    46    1
    62   130   129    1
    63   130   131   ar
    64   114   115    1
    65    47    46    1
    66    47    48    1
    67    45    44    2
    68    68    63   am
    69   115   116    2
    70    50    52    1
    71    50    49    2
    72   120   118   ar
    73   120   122   ar
    74   118   119   ar
    75    48    49    1
    76   102    92   am
    77    27    26    2
    78    28    25    1
    79    63    64    2
    80    63    62    1
    81   122   123   ar
    82    93    92    2
    83    92    91    1
    84   119   121   ar
    85    26    25    1
    86    26    36   am
    87    25    24    1
    88    39    38    2
    89    62    65    1
    90    62    61    1
    91    56    55    2
    92    65    66    1
    93    65    67    1
    94    37    38    1
    95    37    36    1
    96    37    40    1
    97    59    57    1
    98   123   121   ar
    99    58    57    1
   100    58    60    1
   101    91    94    1
   102    91    90    1
   103    94    95    1
   104    61    55   am
   105    55    54    1
   106    57    54    1
   107    41    40    1
   108    54    53    1
   109    95    97   ar
   110    95    96   ar
   111    97    99   ar
   112    23    21   am
   113    96    98   ar
   114    18    17    2
   115    17    16    1
   116   149   147   ar
   117    21    22    2
   118    21    20    1
   119   160   159   ar
   120   160   158   ar
   121    99   100   ar
   122    19    16    1
   123    19    20    1
   124    98   100   ar
   125    14    12   ar
   126    14    13   ar
   127    16    15    1
   128   159   157   ar
   129   158   156   ar
   130   146   147    1
   131   146   145    1
   132    12    10   ar
   133   100   101    1
   134   147   148   ar
   135    13    11   ar
   136   144   143    2
   137    10     9   ar
   138    10     8   ar
   139    11     8   ar
   140   143   142    1
   141   157   155   ar
   142   145   142    1
   143     9     7   ar
   144   156   155   ar
   145     8     6   ar
   146   155   154    1
   147     7     6   ar
   148   142   141    1
   149     6     5    1
   150     5     2    1
   151   154   151    1
   152   151   150    1
   153   151   152    1
   154     4     3    2
   155     2     3    1
   156     2     1    1
   157   152   153    2
