@<TRIPOS>MOLECULE
tmp/1e73A01.pdb
 72 67 0 0 0
SMALL
GASTEIGER

@<TRIPOS>ATOM
      1  N         61.6410  108.7980   38.9300 N.3   205  SER205     -0.1203
      2  CA        62.4760  108.2940   37.8490 C.3   205  SER205      0.2005
      3  C         63.5440  109.3150   37.5200 C.2   205  SER205      0.2460
      4  O         63.2410  110.5010   37.5520 O.2   205  SER205     -0.2732
      5  CB        61.6080  108.0970   36.5980 C.3   205  SER205      0.2103
      6  OG        60.6600  107.0850   36.8380 O.3   205  SER205     -0.2182
      7  N         64.7270  108.8730   37.0560 N.am  206  PRO206     -0.2728
      8  CA        65.8250  109.7680   36.8030 C.3   206  PRO206      0.1401
      9  C         65.5210  110.9380   35.8770 C.2   206  PRO206      0.2269
     10  O         66.0310  112.0360   36.0340 O.2   206  PRO206     -0.2865
     11  CB        66.9010  108.8420   36.2210 C.3   206  PRO206      0.0296
     12  CG        66.6140  107.5010   36.7560 C.3   206  PRO206      0.0237
     13  CD        65.1400  107.4650   37.0120 C.3   206  PRO206      0.0939
     14  N         64.3570  105.8800   42.5560 N.3   215  GLY215     -0.1210
     15  CA        62.9500  105.7820   42.3320 C.3   215  GLY215      0.1956
     16  C         62.5330  105.3550   40.9250 C.2   215  GLY215      0.2611
     17  O         63.3210  105.0290   40.0580 O.2   215  GLY215     -0.2717
     18  N         61.2320  105.3130   40.8130 N.am  216  ASN216     -0.1974
     19  CA        60.5700  104.9290   39.5680 C.3   216  ASN216      0.1688
     20  C         59.1230  105.4410   39.6830 C.2   216  ASN216      0.2292
     21  O         58.2700  104.9390   40.4070 O.2   216  ASN216     -0.2864
     22  CB        60.5890  103.4300   39.4120 C.3   216  ASN216      0.1181
     23  CG        59.9640  103.0660   38.1290 C.2   216  ASN216      0.2629
     24  OD1       58.9990  103.5680   37.5880 O.2   216  ASN216     -0.2716
     25  ND2       60.5940  102.0090   37.5610 N.am  216  ASN216     -0.0877
     26  N         56.7300  105.5260   37.6470 N.3   218  SER218     -0.1202
     27  CA        55.6720  104.7260   37.0350 C.3   218  SER218      0.2020
     28  C         55.1640  103.5950   37.9130 C.2   218  SER218      0.2619
     29  O         53.9870  103.2260   37.8110 O.2   218  SER218     -0.2717
     30  CB        56.2500  104.2070   35.7160 C.3   218  SER218      0.2103
     31  OG        55.2540  103.5890   34.9100 O.3   218  SER218     -0.2182
     32  N         56.0600  103.0420   38.7400 N.am  219  THR219     -0.1952
     33  CA        55.6890  101.9070   39.5640 C.3   219  THR219      0.1897
     34  C         55.5250  102.2000   41.0700 C.2   219  THR219      0.2313
     35  O         54.6510  101.6460   41.7270 O.2   219  THR219     -0.2863
     36  CB        56.7770  100.8160   39.4460 C.3   219  THR219      0.1794
     37  OG1       58.0510  101.4010   39.7630 O.3   219  THR219     -0.2208
     38  CG2       56.7860  100.2710   38.0390 C.3   219  THR219      0.0378
     39  N         50.1430   95.3490   34.9370 N.3   303  GLU303     -0.1231
     40  CA        51.0830   94.6670   35.8300 C.3   303  GLU303      0.1699
     41  C         51.6890   95.5990   36.8520 C.2   303  GLU303      0.2592
     42  O         52.2570   95.1650   37.8330 O.2   303  GLU303     -0.2718
     43  CB        52.2180   94.0450   34.9630 C.3   303  GLU303      0.0402
     44  CG        53.3380   93.4220   35.7430 C.3   303  GLU303      0.1161
     45  CD        54.6530   92.9400   35.2040 C.2   303  GLU303      0.3649
     46  OE1       54.9170   92.7610   34.0020 O.co2 303  GLU303     -0.2457
     47  OE2       55.5460   92.7050   36.0690 O.co2 303  GLU303     -0.2457
     48  N         51.6110   96.9180   36.6420 N.am  304  ARG304     -0.1980
     49  CA        52.0890   97.8610   37.6610 C.3   304  ARG304      0.1597
     50  C         51.1230   98.0370   38.8340 C.2   304  ARG304      0.2287
     51  O         51.5370   98.6880   39.8100 O.2   304  ARG304     -0.2864
     52  CB        52.3850   99.2030   37.0110 C.3   304  ARG304      0.0334
     53  CG        53.5410   99.1680   36.0350 C.3   304  ARG304      0.0492
     54  CD        53.8980  100.4860   35.3660 C.3   304  ARG304      0.2205
     55  NE        52.8410  100.9020   34.4730 N.pl3 304  ARG304     -0.0865
     56  CZ        52.0160  101.9320   34.5810 C.cat 304  ARG304      0.5346
     57  NH1       52.1040  102.8270   35.5440 N.pl3 304  ARG304      0.1354
     58  NH2       51.0360  102.1110   33.6740 N.pl3 304  ARG304      0.1354
     59  N         53.2680  105.2070   28.4830 N.3   340  VAL340     -0.1245
     60  CA        53.7900  104.2390   29.4490 C.3   340  VAL340      0.1561
     61  C         55.2210  103.7990   29.1630 C.2   340  VAL340      0.2260
     62  O         55.9950  103.4610   30.0660 O.2   340  VAL340     -0.2867
     63  CB        52.8510  103.0360   29.6240 C.3   340  VAL340      0.0252
     64  CG1       53.3640  102.0770   30.7070 C.3   340  VAL340      0.0019
     65  CG2       51.4270  103.4660   29.9960 C.3   340  VAL340      0.0019
     66  N         60.5640  107.2420   29.3250 N.3   343  THR343     -0.1218
     67  CA        61.3550  107.1280   30.5560 C.3   343  THR343      0.1862
     68  C         60.8050  108.1380   31.5820 C.2   343  THR343      0.2287
     69  O         61.0700  107.9310   32.7550 O.2   343  THR343     -0.2866
     70  CB        62.8440  107.4000   30.4050 C.3   343  THR343      0.1770
     71  OG1       62.9390  108.6990   29.8200 O.3   343  THR343     -0.2211
     72  CG2       63.5220  106.3220   29.6060 C.3   343  THR343      0.0375
@<TRIPOS>BOND
     1    59    60    1
     2    61    60    1
     3    61    62    2
     4    66    67    1
     5    60    63    1
     6    72    70    1
     7    63    65    1
     8    63    64    1
     9    71    70    1
    10    70    67    1
    11    67    68    1
    12    68    69    2
    13    58    56    1
    14    46    45   ar
    15    55    56    2
    16    55    54    1
    17    56    57    1
    18    31    30    1
    19    39    40    1
    20    43    44    1
    21    43    40    1
    22    45    44    1
    23    45    47   ar
    24    54    53    1
    25    30    27    1
    26    40    41    1
    27     9    10    2
    28     9     8    1
    29    53    52    1
    30    11    12    1
    31    11     8    1
    32     5     6    1
    33     5     2    1
    34    48    41   am
    35    48    49    1
    36    12    13    1
    37     8     7    1
    38    41    42    2
    39    52    49    1
    40    13     7    1
    41    27    26    1
    42    27    28    1
    43     7     3   am
    44     3     4    2
    45     3     2    1
    46    25    23   am
    47    24    23    2
    48    49    50    1
    49    29    28    2
    50     2     1    1
    51    28    32   am
    52    38    36    1
    53    23    22    1
    54    32    33    1
    55    50    51    2
    56    22    19    1
    57    36    33    1
    58    36    37    1
    59    33    34    1
    60    19    20    1
    61    19    18    1
    62    20    21    2
    63    17    16    2
    64    18    16   am
    65    16    15    1
    66    34    35    2
    67    15    14    1
