@<TRIPOS>MOLECULE
tmp/1e79D02.pdb
 142 133 0 0 0
SMALL
GASTEIGER

@<TRIPOS>ATOM
      1  N         99.8940   46.7060   59.9210 N.3   155  THR155     -0.1203
      2  CA       100.3010   45.3160   59.7790 C.3   155  THR155      0.1994
      3  C         99.1360   44.3790   59.5240 C.2   155  THR155      0.2617
      4  O         99.2420   43.4520   58.7070 O.2   155  THR155     -0.2717
      5  CB       101.1010   44.9080   61.0280 C.3   155  THR155      0.1784
      6  OG1      102.2720   45.7390   61.0620 O.3   155  THR155     -0.2211
      7  CG2      101.4780   43.4460   61.0160 C.3   155  THR155      0.0376
      8  N         98.0210   44.6130   60.2140 N.am  156  VAL156     -0.1979
      9  CA        96.8350   43.7690   60.0050 C.3   156  VAL156      0.1595
     10  C         96.3740   43.9100   58.5630 C.2   156  VAL156      0.2287
     11  O         95.9630   42.9400   57.9230 O.2   156  VAL156     -0.2864
     12  CB        95.7490   44.1350   61.0280 C.3   156  VAL156      0.0276
     13  CG1       94.3550   43.7310   60.5870 C.3   156  VAL156      0.0022
     14  CG2       96.0960   43.4980   62.3820 C.3   156  VAL156      0.0022
     15  N         98.8560   41.9990   56.2910 N.3   159  MET159     -0.1245
     16  CA        98.6750   40.5600   56.4360 C.3   159  MET159      0.1570
     17  C         97.4250   40.1030   55.6940 C.2   159  MET159      0.2261
     18  O         97.4210   39.0450   55.0640 O.2   159  MET159     -0.2867
     19  CB        98.6460   40.1440   57.9020 C.3   159  MET159      0.0387
     20  CG        99.9950   40.3270   58.5970 C.3   159  MET159      0.0595
     21  SD       101.3530   39.6710   57.6100 S.3   159  MET159     -0.1393
     22  CE       102.7440   39.9850   58.6950 C.3   159  MET159      0.0692
     23  N         97.1180   37.6720   52.3280 N.3   163  ASN163     -0.1240
     24  CA        96.1460   36.5920   52.3250 C.3   163  ASN163      0.1653
     25  C         95.2390   36.6120   51.1040 C.2   163  ASN163      0.2266
     26  O         94.9290   35.5490   50.5520 O.2   163  ASN163     -0.2867
     27  CB        95.3180   36.6570   53.6100 C.3   163  ASN163      0.1155
     28  CG        94.2250   35.6160   53.6740 C.2   163  ASN163      0.2627
     29  OD1       94.4650   34.4690   54.0470 O.2   163  ASN163     -0.2716
     30  ND2       93.0080   36.0150   53.3190 N.am  163  ASN163     -0.0877
     31  N         98.3040   34.7510   47.9580 N.3   167  LYS167     -0.1245
     32  CA        98.0430   33.3050   47.9720 C.3   167  LYS167      0.1561
     33  C         97.6600   32.8710   46.5510 C.2   167  LYS167      0.2260
     34  O         98.1230   31.8640   46.0220 O.2   167  LYS167     -0.2867
     35  CB        96.9280   32.9550   48.9370 C.3   167  LYS167      0.0271
     36  CG        97.2990   32.8510   50.4080 C.3   167  LYS167      0.0035
     37  CD        96.0430   32.5320   51.2150 C.3   167  LYS167      0.0206
     38  CE        96.3590   32.1010   52.6320 C.3   167  LYS167      0.1093
     39  NZ        95.1470   31.5860   53.3350 N.3   167  LYS167     -0.1314
     40  N        108.4060   38.7780   67.1260 N.3   183  ARG183     -0.1231
     41  CA       107.2310   37.9150   67.2750 C.3   183  ARG183      0.1694
     42  C        106.4280   37.8780   65.9760 C.2   183  ARG183      0.2591
     43  O        105.9100   36.8330   65.5840 O.2   183  ARG183     -0.2718
     44  CB       106.3630   38.3880   68.4370 C.3   183  ARG183      0.0321
     45  CG       104.9780   37.7570   68.4770 C.3   183  ARG183      0.0489
     46  CD       104.1380   38.3740   69.5850 C.3   183  ARG183      0.2205
     47  NE       103.5990   39.6710   69.2190 N.pl3 183  ARG183     -0.0865
     48  CZ       102.5870   39.8860   68.3910 C.cat 183  ARG183      0.5346
     49  NH1      101.9650   38.8750   67.8070 N.pl3 183  ARG183      0.1354
     50  NH2      102.1900   41.1300   68.1440 N.pl3 183  ARG183      0.1354
     51  N        106.3020   39.0190   65.3020 N.am  184  GLU184     -0.1979
     52  CA       105.5450   39.0510   64.0520 C.3   184  GLU184      0.1602
     53  C        106.1870   38.1810   62.9820 C.2   184  GLU184      0.2287
     54  O        105.4870   37.5370   62.1940 O.2   184  GLU184     -0.2864
     55  CB       105.3450   40.5040   63.5900 C.3   184  GLU184      0.0415
     56  CG       104.2890   41.2160   64.4100 C.3   184  GLU184      0.1163
     57  CD       104.2420   42.7170   64.2620 C.2   184  GLU184      0.3649
     58  OE1      105.1710   43.3010   63.6700 O.co2 184  GLU184     -0.2457
     59  OE2      103.2690   43.3320   64.7570 O.co2 184  GLU184     -0.2457
     60  N        105.3380   34.4880   63.7020 N.3   187  ASP187     -0.1225
     61  CA       103.9970   34.4430   63.3730 C.3   187  ASP187      0.1805
     62  C        103.7860   34.1910   61.8710 C.2   187  ASP187      0.2597
     63  O        103.1560   33.2200   61.4570 O.2   187  ASP187     -0.2718
     64  CB       102.9220   35.4340   63.8240 C.3   187  ASP187      0.1424
     65  CG       102.8750   35.6540   65.3140 C.2   187  ASP187      0.3668
     66  OD1      103.0620   34.6840   66.0820 O.co2 187  ASP187     -0.2456
     67  OD2      102.6380   36.8150   65.7290 O.co2 187  ASP187     -0.2456
     68  N        104.2720   35.1380   61.0830 N.am  188  LEU188     -0.1979
     69  CA       104.1380   35.1260   59.6390 C.3   188  LEU188      0.1596
     70  C        104.6880   33.8340   59.0430 C.2   188  LEU188      0.2287
     71  O        104.0860   33.1610   58.2130 O.2   188  LEU188     -0.2864
     72  CB       104.9030   36.3360   59.0670 C.3   188  LEU188      0.0297
     73  CG       104.6160   36.7130   57.6220 C.3   188  LEU188      0.0022
     74  CD1      103.1100   36.7500   57.3780 C.3   188  LEU188      0.0001
     75  CD2      105.2290   38.0610   57.2570 C.3   188  LEU188      0.0001
     76  N        102.5900   30.9630   59.7430 N.3   191  GLU191     -0.1245
     77  CA       101.3560   31.2140   59.0110 C.3   191  GLU191      0.1567
     78  C        101.5170   30.6940   57.5810 C.2   191  GLU191      0.2260
     79  O        100.6190   30.1390   56.9610 O.2   191  GLU191     -0.2867
     80  CB       101.0410   32.7300   58.9390 C.3   191  GLU191      0.0388
     81  CG        99.5860   33.0490   58.7260 C.3   191  GLU191      0.1160
     82  CD        99.2490   34.4740   59.0980 C.2   191  GLU191      0.3649
     83  OE1      100.1300   35.1860   59.6360 O.co2 191  GLU191     -0.2457
     84  OE2       98.0930   34.8790   58.8580 O.co2 191  GLU191     -0.2457
     85  N        101.7560   26.9240   57.1080 N.3   194  GLU194     -0.1231
     86  CA       100.4090   26.3730   57.1490 C.3   194  GLU194      0.1699
     87  C         99.7180   26.5410   55.8000 C.2   194  GLU194      0.2592
     88  O         99.1460   25.5810   55.2850 O.2   194  GLU194     -0.2718
     89  CB        99.5580   27.0080   58.2410 C.3   194  GLU194      0.0402
     90  CG        99.7110   26.4100   59.6180 C.3   194  GLU194      0.1161
     91  CD        99.5610   24.9010   59.6440 C.2   194  GLU194      0.3649
     92  OE1       98.4890   24.3960   59.2470 O.co2 194  GLU194     -0.2457
     93  OE2      100.5260   24.2190   60.0630 O.co2 194  GLU194     -0.2457
     94  N         99.7610   27.7470   55.2430 N.am  195  SER195     -0.1952
     95  CA        99.1200   27.9910   53.9560 C.3   195  SER195      0.1924
     96  C         99.9030   27.3440   52.8170 C.2   195  SER195      0.2314
     97  O         99.5410   27.5130   51.6500 O.2   195  SER195     -0.2863
     98  CB        98.9640   29.4880   53.6870 C.3   195  SER195      0.2116
     99  OG       100.1720   30.0540   53.2160 O.3   195  SER195     -0.2180
    100  N         89.4930   38.5860   57.5430 N.3   411  GLN411     -0.1231
    101  CA        89.7060   37.1570   57.7910 C.3   411  GLN411      0.1698
    102  C         90.8420   36.9790   58.8020 C.2   411  GLN411      0.2592
    103  O         90.7600   36.2640   59.7920 O.2   411  GLN411     -0.2718
    104  CB        90.0830   36.4900   56.4750 C.3   411  GLN411      0.0381
    105  CG        89.8280   35.0000   56.3810 C.3   411  GLN411      0.0905
    106  CD        89.9120   34.5060   54.9390 C.2   411  GLN411      0.2608
    107  OE1       89.3830   35.1460   54.0250 O.2   411  GLN411     -0.2717
    108  NE2       90.5870   33.3770   54.7490 N.am  411  GLN411     -0.0878
    109  N         91.9300   37.6730   58.4990 N.am  412  VAL412     -0.1980
    110  CA        93.1360   37.6950   59.3050 C.3   412  VAL412      0.1595
    111  C         92.8760   38.2680   60.6870 C.2   412  VAL412      0.2287
    112  O         93.6820   38.0600   61.6020 O.2   412  VAL412     -0.2864
    113  CB        94.1850   38.5330   58.5330 C.3   412  VAL412      0.0276
    114  CG1       95.1440   39.2930   59.4180 C.3   412  VAL412      0.0022
    115  CG2       94.9470   37.6380   57.5600 C.3   412  VAL412      0.0022
    116  N         90.1380   37.7240   62.7320 N.3   414  GLU414     -0.1231
    117  CA        89.2000   36.9650   63.5470 C.3   414  GLU414      0.1699
    118  C         89.5020   37.0070   65.0260 C.2   414  GLU414      0.2592
    119  O         88.5810   37.2350   65.8200 O.2   414  GLU414     -0.2718
    120  CB        89.0840   35.5300   63.0160 C.3   414  GLU414      0.0402
    121  CG        88.3790   35.5070   61.6590 C.3   414  GLU414      0.1161
    122  CD        88.3280   34.1480   61.0070 C.2   414  GLU414      0.3649
    123  OE1       89.0830   33.2410   61.4270 O.co2 414  GLU414     -0.2457
    124  OE2       87.5370   33.9690   60.0510 O.co2 414  GLU414     -0.2457
    125  N         90.7610   36.8660   65.4240 N.am  415  VAL415     -0.1966
    126  CA        91.1510   36.9070   66.8210 C.3   415  VAL415      0.1727
    127  C         90.8790   38.2550   67.4790 C.2   415  VAL415      0.2616
    128  O         91.1120   38.3600   68.6860 O.2   415  VAL415     -0.2715
    129  CB        92.6490   36.5930   67.0310 C.3   415  VAL415      0.0290
    130  CG1       92.9160   35.1170   66.8420 C.3   415  VAL415      0.0023
    131  CG2       93.5070   37.4410   66.1010 C.3   415  VAL415      0.0023
    132  N         90.4470   39.2620   66.7240 N.am  416  PHE416     -0.1974
    133  CA        90.2020   40.5730   67.3000 C.3   416  PHE416      0.1639
    134  C         88.7340   40.9910   67.2380 C.2   416  PHE416      0.2290
    135  O         88.2670   41.6920   68.1340 O.2   416  PHE416     -0.2864
    136  CB        90.9910   41.6800   66.5910 C.3   416  PHE416      0.0560
    137  CG        92.4700   41.4780   66.5160 C.ar  416  PHE416     -0.0200
    138  CD1       93.2260   41.3800   67.6710 C.ar  416  PHE416     -0.0042
    139  CD2       93.0990   41.3780   65.2820 C.ar  416  PHE416     -0.0042
    140  CE1       94.5920   41.1910   67.5990 C.ar  416  PHE416     -0.0003
    141  CE2       94.4650   41.1900   65.2080 C.ar  416  PHE416     -0.0003
    142  CZ        95.2100   41.0950   66.3670 C.ar  416  PHE416     -0.0000
@<TRIPOS>BOND
     1    34    33    2
     2    33    32    1
     3    31    32    1
     4    32    35    1
     5    35    36    1
     6    36    37    1
     7    26    25    2
     8    25    24    1
     9    37    38    1
    10    97    96    2
    11    24    23    1
    12    24    27    1
    13    38    39    1
    14    96    95    1
    15    99    98    1
    16    30    28   am
    17    27    28    1
    18    28    29    2
    19    98    95    1
    20    95    94    1
    21   107   106    2
    22   108   106   am
    23   106   105    1
    24    18    17    2
    25    94    87   am
    26    88    87    2
    27    17    16    1
    28    87    86    1
    29    15    16    1
    30   105   104    1
    31    16    19    1
    32   104   101    1
    33    79    78    2
    34    85    86    1
    35    86    89    1
    36    75    73    1
    37    74    73    1
    38   100   101    1
    39   115   113    1
    40    78    77    1
    41    21    20    1
    42    21    22    1
    43    73    72    1
    44   101   102    1
    45    19    20    1
    46    11    10    2
    47    71    70    2
    48    89    90    1
    49   109   102   am
    50   109   110    1
    51   113   110    1
    52   113   114    1
    53    10     9    1
    54     4     3    2
    55    81    80    1
    56    81    82    1
    57   102   103    2
    58    84    82   ar
    59    80    77    1
    60    77    76    1
    61    70    69    1
    62    72    69    1
    63    82    83   ar
    64    92    91   ar
    65   110   111    1
    66     3     2    1
    67     3     8   am
    68    90    91    1
    69    69    68    1
    70    91    93   ar
    71     2     1    1
    72     2     5    1
    73     9     8    1
    74     9    12    1
    75   124   122   ar
    76    13    12    1
    77   111   112    2
    78   122   123   ar
    79   122   121    1
    80     7     5    1
    81     5     6    1
    82    12    14    1
    83    68    62   am
    84    63    62    2
    85   121   120    1
    86    62    61    1
    87    54    53    2
    88   116   117    1
    89    53    52    1
    90   120   117    1
    91    61    60    1
    92    61    64    1
    93   117   118    1
    94    55    52    1
    95    55    56    1
    96    58    57   ar
    97    64    65    1
    98    52    51    1
    99    57    56    1
   100    57    59   ar
   101   118   125   am
   102   118   119    2
   103   141   139   ar
   104   141   142   ar
   105   139   137   ar
   106    51    42   am
   107    65    67   ar
   108    65    66   ar
   109   125   126    1
   110    43    42    2
   111    42    41    1
   112   131   129    1
   113   142   140   ar
   114   137   136    1
   115   137   138   ar
   116   136   133    1
   117   132   133    1
   118   132   127   am
   119   126   129    1
   120   126   127    1
   121   130   129    1
   122    40    41    1
   123   134   133    1
   124   134   135    2
   125    41    44    1
   126   127   128    2
   127   140   138   ar
   128    49    48    1
   129    50    48    1
   130    48    47    2
   131    44    45    1
   132    45    46    1
   133    47    46    1
