@<TRIPOS>MOLECULE
tmp/1e7aB01.pdb
 137 132 0 0 0
SMALL
GASTEIGER

@<TRIPOS>ATOM
      1  N         66.6940    7.3840   82.9250 N.3   498  PHE498     -0.1241
      2  CA        67.6820    7.4180   81.8730 C.3   498  PHE498      0.1605
      3  C         68.2220    6.0450   81.4890 C.2   498  PHE498      0.2264
      4  O         68.5430    5.2150   82.3440 O.2   498  PHE498     -0.2867
      5  CB        68.8510    8.3100   82.2960 C.3   498  PHE498      0.0534
      6  CG        69.9350    8.4200   81.2600 C.ar  498  PHE498     -0.0203
      7  CD1       69.8500    9.3690   80.2470 C.ar  498  PHE498     -0.0042
      8  CD2       71.0430    7.5750   81.2930 C.ar  498  PHE498     -0.0042
      9  CE1       70.8520    9.4780   79.2810 C.ar  498  PHE498     -0.0003
     10  CE2       72.0520    7.6760   80.3310 C.ar  498  PHE498     -0.0003
     11  CZ        71.9540    8.6290   79.3230 C.ar  498  PHE498     -0.0000
     12  N         68.2970    6.7790   75.1310 N.3   502  THR502     -0.1203
     13  CA        67.6200    8.0750   75.1840 C.3   502  THR502      0.1994
     14  C         68.3010    9.0480   74.2360 C.2   502  THR502      0.2617
     15  O         67.6830    9.5530   73.2990 O.2   502  THR502     -0.2717
     16  CB        67.6470    8.6950   76.5960 C.3   502  THR502      0.1784
     17  OG1       67.0480    7.7950   77.5340 O.3   502  THR502     -0.2211
     18  CG2       66.8720   10.0060   76.6060 C.3   502  THR502      0.0376
     19  N         69.5760    9.3120   74.4930 N.am  503  PHE503     -0.1975
     20  CA        70.3430   10.2160   73.6500 C.3   503  PHE503      0.1639
     21  C         71.5170    9.4860   73.0160 C.2   503  PHE503      0.2290
     22  O         72.3600    8.9170   73.7110 O.2   503  PHE503     -0.2864
     23  CB        70.8520   11.4130   74.4570 C.3   503  PHE503      0.0560
     24  CG        70.9210   12.6870   73.6620 C.ar  503  PHE503     -0.0200
     25  CD1       69.7690   13.4300   73.4150 C.ar  503  PHE503     -0.0042
     26  CD2       72.1330   13.1370   73.1410 C.ar  503  PHE503     -0.0042
     27  CE1       69.8200   14.6050   72.6580 C.ar  503  PHE503     -0.0003
     28  CE2       72.1970   14.3100   72.3840 C.ar  503  PHE503     -0.0003
     29  CZ        71.0370   15.0450   72.1420 C.ar  503  PHE503     -0.0000
     30  N         74.8890    9.4260   70.3350 N.3   505  PHE505     -0.1241
     31  CA        75.9610   10.2980   69.8860 C.3   505  PHE505      0.1605
     32  C         76.6840    9.7610   68.6690 C.2   505  PHE505      0.2264
     33  O         77.4810    8.8260   68.7530 O.2   505  PHE505     -0.2867
     34  CB        76.9670   10.5200   71.0110 C.3   505  PHE505      0.0534
     35  CG        76.3310   10.7810   72.3370 C.ar  505  PHE505     -0.0203
     36  CD1       75.9130    9.7240   73.1380 C.ar  505  PHE505     -0.0042
     37  CD2       76.1310   12.0830   72.7810 C.ar  505  PHE505     -0.0042
     38  CE1       75.3040    9.9580   74.3640 C.ar  505  PHE505     -0.0003
     39  CE2       75.5220   12.3290   74.0060 C.ar  505  PHE505     -0.0003
     40  CZ        75.1070   11.2640   74.8000 C.ar  505  PHE505     -0.0000
     41  N         68.7620   18.6260   73.3630 N.3   524  ALA524     -0.1245
     42  CA        69.4160   18.1170   74.5590 C.3   524  ALA524      0.1562
     43  C         68.8410   18.7800   75.8000 C.2   524  ALA524      0.2260
     44  O         68.5680   18.1130   76.7980 O.2   524  ALA524     -0.2867
     45  CB        70.9180   18.3720   74.4790 C.3   524  ALA524      0.0290
     46  N         65.5120   17.2940   76.6950 N.3   527  GLU527     -0.1231
     47  CA        65.7150   15.9970   77.3280 C.3   527  GLU527      0.1699
     48  C         66.2040   16.1900   78.7580 C.2   527  GLU527      0.2592
     49  O         65.8730   15.4090   79.6440 O.2   527  GLU527     -0.2718
     50  CB        66.7350   15.1740   76.5360 C.3   527  GLU527      0.0402
     51  CG        66.1400   14.4010   75.3750 C.3   527  GLU527      0.1161
     52  CD        64.8450   13.7180   75.7420 C.2   527  GLU527      0.3649
     53  OE1       64.7270   13.2470   76.8960 O.co2 527  GLU527     -0.2457
     54  OE2       63.9480   13.6560   74.8750 O.co2 527  GLU527     -0.2457
     55  N         66.9940   17.2360   78.9750 N.am  528  LEU528     -0.1980
     56  CA        67.5260   17.5450   80.2990 C.3   528  LEU528      0.1596
     57  C         66.3960   17.8900   81.2620 C.2   528  LEU528      0.2287
     58  O         66.2700   17.2930   82.3280 O.2   528  LEU528     -0.2864
     59  CB        68.4880   18.7330   80.2160 C.3   528  LEU528      0.0297
     60  CG        69.9770   18.5090   80.4810 C.3   528  LEU528      0.0022
     61  CD1       70.5350   19.6980   81.2370 C.3   528  LEU528      0.0001
     62  CD2       70.1870   17.2300   81.2730 C.3   528  LEU528      0.0001
     63  N         64.2000   15.2640   82.5300 N.3   531  HIS531     -0.1226
     64  CA        64.8000   14.3750   83.5100 C.3   531  HIS531      0.1752
     65  C         65.0370   15.0420   84.8590 C.2   531  HIS531      0.2595
     66  O         65.1190   14.3630   85.8780 O.2   531  HIS531     -0.2718
     67  CB        66.1200   13.8250   82.9690 C.3   531  HIS531      0.0759
     68  CG        65.9510   12.8310   81.8640 C.ar  531  HIS531      0.0818
     69  ND1       66.2330   11.4910   82.0210 N.ar  531  HIS531     -0.2268
     70  CD2       65.5220   12.9780   80.5880 C.ar  531  HIS531      0.1154
     71  CE1       65.9860   10.8570   80.8880 C.ar  531  HIS531      0.1986
     72  NE2       65.5540   11.7360   80.0030 N.ar  531  HIS531     -0.2212
     73  N         65.1440   16.3670   84.8690 N.am  532  LYS532     -0.1980
     74  CA        65.3790   17.0920   86.1140 C.3   532  LYS532      0.1596
     75  C         64.5880   18.3920   86.1760 C.2   532  LYS532      0.2287
     76  O         65.1540   19.4720   86.3240 O.2   532  LYS532     -0.2864
     77  CB        66.8710   17.3920   86.2700 C.3   532  LYS532      0.0298
     78  CG        67.3100   17.8960   87.6230 C.3   532  LYS532      0.0038
     79  CD        68.8420   17.8450   87.7110 C.3   532  LYS532      0.0206
     80  CE        69.2860   18.3620   89.0660 C.3   532  LYS532      0.1093
     81  NZ        68.8680   17.4440   90.1500 N.3   532  LYS532     -0.1314
     82  N         75.6960   22.7870   82.5580 N.3   543  VAL543     -0.1231
     83  CA        75.7160   21.5350   81.8180 C.3   543  VAL543      0.1692
     84  C         75.7580   21.8190   80.3290 C.2   543  VAL543      0.2591
     85  O         76.4510   21.1370   79.5780 O.2   543  VAL543     -0.2718
     86  CB        74.4630   20.6960   82.1220 C.3   543  VAL543      0.0266
     87  CG1       74.3640   19.5230   81.1590 C.3   543  VAL543      0.0020
     88  CG2       74.5160   20.2060   83.5510 C.3   543  VAL543      0.0020
     89  N         75.0170   22.8320   79.9020 N.am  544  MET544     -0.1979
     90  CA        74.9870   23.1760   78.4920 C.3   544  MET544      0.1605
     91  C         76.3380   23.6870   78.0070 C.2   544  MET544      0.2287
     92  O         76.7390   23.4010   76.8790 O.2   544  MET544     -0.2864
     93  CB        73.8770   24.1940   78.2240 C.3   544  MET544      0.0413
     94  CG        72.4870   23.5600   78.1930 C.3   544  MET544      0.0598
     95  SD        72.4770   21.8720   77.5130 S.3   544  MET544     -0.1393
     96  CE        71.6860   22.1350   75.9500 C.3   544  MET544      0.0692
     97  N         78.2390   20.6440   77.3520 N.3   547  PHE547     -0.1241
     98  CA        77.9160   19.8240   76.1880 C.3   547  PHE547      0.1605
     99  C         78.6590   20.3830   74.9890 C.2   547  PHE547      0.2264
    100  O         79.1180   19.6410   74.1230 O.2   547  PHE547     -0.2867
    101  CB        76.4100   19.8320   75.9130 C.3   547  PHE547      0.0534
    102  CG        75.9870   18.8820   74.8230 C.ar  547  PHE547     -0.0203
    103  CD1       76.2510   17.5190   74.9270 C.ar  547  PHE547     -0.0042
    104  CD2       75.3170   19.3480   73.6960 C.ar  547  PHE547     -0.0042
    105  CE1       75.8540   16.6340   73.9230 C.ar  547  PHE547     -0.0003
    106  CE2       74.9150   18.4710   72.6880 C.ar  547  PHE547     -0.0003
    107  CZ        75.1850   17.1120   72.8020 C.ar  547  PHE547     -0.0000
    108  N         80.4170   11.9320   80.1340 N.3   571  LEU571     -0.1231
    109  CA        79.5750   13.0860   80.4330 C.3   571  LEU571      0.1693
    110  C         78.3220   12.6780   81.2090 C.2   571  LEU571      0.2591
    111  O         77.9290   13.3500   82.1640 O.2   571  LEU571     -0.2718
    112  CB        79.1720   13.7920   79.1330 C.3   571  LEU571      0.0284
    113  CG        78.7400   15.2610   79.2170 C.3   571  LEU571      0.0019
    114  CD1       79.8540   16.0970   79.8320 C.3   571  LEU571      0.0001
    115  CD2       78.3920   15.7700   77.8240 C.3   571  LEU571      0.0001
    116  N         77.7000   11.5780   80.7920 N.am  572  VAL572     -0.1980
    117  CA        76.4950   11.0800   81.4470 C.3   572  VAL572      0.1595
    118  C         76.7320   10.9330   82.9450 C.2   572  VAL572      0.2287
    119  O         75.8100   11.0830   83.7460 O.2   572  VAL572     -0.2864
    120  CB        76.0680    9.7120   80.8720 C.3   572  VAL572      0.0276
    121  CG1       74.8280    9.2070   81.5920 C.3   572  VAL572      0.0022
    122  CG2       75.7980    9.8380   79.3830 C.3   572  VAL572      0.0022
    123  N         76.6880   14.5900   84.3200 N.3   575  SER575     -0.1202
    124  CA        75.3210   15.0660   84.3040 C.3   575  SER575      0.2020
    125  C         74.5070   14.6030   85.5000 C.2   575  SER575      0.2618
    126  O         73.8310   15.4020   86.1450 O.2   575  SER575     -0.2717
    127  CB        74.6490   14.6010   83.0450 C.3   575  SER575      0.2103
    128  OG        74.9460   13.2550   82.7120 O.3   575  SER575     -0.2182
    129  N         74.5750   13.3090   85.7990 N.am  576  GLN576     -0.1979
    130  CA        73.8320   12.7550   86.9240 C.3   576  GLN576      0.1601
    131  C         74.2130   13.4460   88.2340 C.2   576  GLN576      0.2287
    132  O         73.3460   13.7370   89.0630 O.2   576  GLN576     -0.2864
    133  CB        74.0890   11.2490   87.0380 C.3   576  GLN576      0.0394
    134  CG        73.4940   10.3800   85.9080 C.3   576  GLN576      0.0908
    135  CD        73.6580    8.8930   86.2110 C.2   576  GLN576      0.2608
    136  OE1       74.2690    8.5490   87.2180 O.2   576  GLN576     -0.2717
    137  NE2       73.1150    8.0350   85.3470 N.am  576  GLN576     -0.0878
@<TRIPOS>BOND
     1    32    33    2
     2    32    31    1
     3    31    30    1
     4    31    34    1
     5    34    35    1
     6    29    28   ar
     7    29    27   ar
     8    35    37   ar
     9    35    36   ar
    10    28    26   ar
    11    27    25   ar
    12   106   107   ar
    13   106   104   ar
    14    37    39   ar
    15   107   105   ar
    16    21    20    1
    17    21    22    2
    18    36    38   ar
    19    26    24   ar
    20    15    14    2
    21    41    42    1
    22    25    24   ar
    23    20    23    1
    24    20    19    1
    25    24    23    1
    26   104   102   ar
    27   105   103   ar
    28    39    40   ar
    29   100    99    2
    30    14    19   am
    31    14    13    1
    32    38    40   ar
    33    45    42    1
    34    42    43    1
    35   102   103   ar
    36   102   101    1
    37    54    52   ar
    38    99    98    1
    39    12    13    1
    40    13    16    1
    41    51    52    1
    42    51    50    1
    43    52    53   ar
    44    43    44    2
    45   101    98    1
    46    96    95    1
    47    98    97    1
    48    50    47    1
    49    16    18    1
    50    16    17    1
    51    46    47    1
    52    92    91    2
    53    47    48    1
    54    95    94    1
    55   115   113    1
    56    91    90    1
    57    94    93    1
    58    93    90    1
    59    90    89    1
    60    48    55   am
    61    48    49    2
    62    55    56    1
    63   112   113    1
    64   112   109    1
    65   113   114    1
    66     9    11   ar
    67     9     7   ar
    68    11    10   ar
    69   122   120    1
    70    85    84    2
    71    89    84   am
    72    72    70   ar
    73    72    71   ar
    74   108   109    1
    75    59    56    1
    76    59    60    1
    77     7     6   ar
    78    56    57    1
    79    84    83    1
    80    10     8   ar
    81   109   110    1
    82    60    61    1
    83    60    62    1
    84    70    68   ar
    85   116   110   am
    86   116   117    1
    87   120   117    1
    88   120   121    1
    89    71    69   ar
    90    87    86    1
    91   110   111    2
    92     6     8   ar
    93     6     5    1
    94    57    58    2
    95   117   118    1
    96     3     2    1
    97     3     4    2
    98    83    86    1
    99    83    82    1
   100    68    69   ar
   101    68    67    1
   102     2     5    1
   103     2     1    1
   104    86    88    1
   105    63    64    1
   106   128   127    1
   107   118   119    2
   108    67    64    1
   109   127   124    1
   110    64    65    1
   111   124   123    1
   112   124   125    1
   113    65    73   am
   114    65    66    2
   115    73    74    1
   116   137   135   am
   117   125   129   am
   118   125   126    2
   119   129   130    1
   120   134   135    1
   121   134   133    1
   122    74    75    1
   123    74    77    1
   124    75    76    2
   125   135   136    2
   126    77    78    1
   127   130   133    1
   128   130   131    1
   129    78    79    1
   130    79    80    1
   131   131   132    2
   132    80    81    1
