@<TRIPOS>MOLECULE
tmp/1e7aB00.pdb
 152 142 0 0 0
SMALL
GASTEIGER

@<TRIPOS>ATOM
      1  N         52.5330   41.7490   78.5570 N.3   383  LEU383     -0.1231
      2  CA        53.2010   40.4970   78.2320 C.3   383  LEU383      0.1693
      3  C         54.1380   40.7320   77.0490 C.2   383  LEU383      0.2591
      4  O         55.2670   40.2360   77.0280 O.2   383  LEU383     -0.2718
      5  CB        52.1660   39.4300   77.8830 C.3   383  LEU383      0.0284
      6  CG        52.6990   38.0230   77.6200 C.3   383  LEU383      0.0019
      7  CD1       52.9090   37.2930   78.9360 C.3   383  LEU383      0.0001
      8  CD2       51.7160   37.2710   76.7400 C.3   383  LEU383      0.0001
      9  N         53.6550   41.4970   76.0730 N.am  384  ILE384     -0.1980
     10  CA        54.4220   41.8290   74.8790 C.3   384  ILE384      0.1595
     11  C         55.6270   42.6830   75.2570 C.2   384  ILE384      0.2287
     12  O         56.7540   42.4010   74.8510 O.2   384  ILE384     -0.2864
     13  CB        53.5760   42.6370   73.8670 C.3   384  ILE384      0.0276
     14  CG1       52.3670   41.8190   73.4020 C.3   384  ILE384      0.0022
     15  CG2       54.4410   43.0500   72.6870 C.3   384  ILE384      0.0022
     16  CD1       52.7130   40.5900   72.6030 C.3   384  ILE384      0.0001
     17  N         58.2250   40.3790   77.3570 N.3   387  ASN387     -0.1225
     18  CA        58.9750   39.3970   76.5880 C.3   387  ASN387      0.1785
     19  C         59.8430   40.0150   75.5120 C.2   387  ASN387      0.2597
     20  O         60.8940   39.4770   75.1730 O.2   387  ASN387     -0.2718
     21  CB        58.0220   38.3830   75.9650 C.3   387  ASN387      0.1169
     22  CG        57.5560   37.3490   76.9630 C.2   387  ASN387      0.2627
     23  OD1       58.2250   36.3400   77.1870 O.2   387  ASN387     -0.2716
     24  ND2       56.4080   37.5980   77.5770 N.am  387  ASN387     -0.0877
     25  N         59.4100   41.1460   74.9730 N.am  388  CYS388     -0.1970
     26  CA        60.1890   41.8020   73.9360 C.3   388  CYS388      0.1712
     27  C         61.5020   42.2850   74.5270 C.2   388  CYS388      0.2296
     28  O         62.5720   42.0040   73.9970 O.2   388  CYS388     -0.2864
     29  CB        59.4190   42.9760   73.3430 C.3   388  CYS388      0.0983
     30  SG        58.8110   42.6920   71.6430 S.3   388  CYS388     -0.0798
     31  N         63.9150   39.5760   75.2360 N.3   391  PHE391     -0.1241
     32  CA        64.4400   39.0990   73.9620 C.3   391  PHE391      0.1605
     33  C         65.5360   40.0320   73.4730 C.2   391  PHE391      0.2264
     34  O         66.4730   39.6080   72.8040 O.2   391  PHE391     -0.2867
     35  CB        63.3030   39.0260   72.9350 C.3   391  PHE391      0.0534
     36  CG        63.7630   38.9540   71.5060 C.ar  391  PHE391     -0.0203
     37  CD1       64.0100   37.7250   70.9000 C.ar  391  PHE391     -0.0042
     38  CD2       63.9230   40.1130   70.7550 C.ar  391  PHE391     -0.0042
     39  CE1       64.4080   37.6510   69.5680 C.ar  391  PHE391     -0.0003
     40  CE2       64.3210   40.0500   69.4230 C.ar  391  PHE391     -0.0003
     41  CZ        64.5640   38.8150   68.8280 C.ar  391  PHE391     -0.0000
     42  N         66.9370   33.3520   73.8150 N.3   399  PHE399     -0.1241
     43  CA        65.5260   33.5440   74.1210 C.3   399  PHE399      0.1605
     44  C         64.7770   32.2340   73.8720 C.2   399  PHE399      0.2264
     45  O         63.9240   31.8360   74.6630 O.2   399  PHE399     -0.2867
     46  CB        64.9390   34.6540   73.2490 C.3   399  PHE399      0.0534
     47  CG        63.5370   35.0490   73.6330 C.ar  399  PHE399     -0.0203
     48  CD1       63.2560   35.5100   74.9140 C.ar  399  PHE399     -0.0042
     49  CD2       62.4980   34.9610   72.7120 C.ar  399  PHE399     -0.0042
     50  CE1       61.9610   35.8790   75.2730 C.ar  399  PHE399     -0.0003
     51  CE2       61.1980   35.3270   73.0610 C.ar  399  PHE399     -0.0003
     52  CZ        60.9310   35.7870   74.3460 C.ar  399  PHE399     -0.0000
     53  N         62.3940   29.7830   76.5180 N.3   403  LEU403     -0.1245
     54  CA        61.0490   29.2700   76.2560 C.3   403  LEU403      0.1561
     55  C         61.0540   27.7470   76.2710 C.2   403  LEU403      0.2260
     56  O         60.0740   27.1120   76.6590 O.2   403  LEU403     -0.2867
     57  CB        60.5510   29.7660   74.8970 C.3   403  LEU403      0.0270
     58  CG        60.4380   31.2810   74.7210 C.3   403  LEU403      0.0019
     59  CD1       60.0500   31.6080   73.2880 C.3   403  LEU403      0.0001
     60  CD2       59.4090   31.8270   75.6900 C.3   403  LEU403      0.0001
     61  N         60.9720   26.7540   79.8600 N.3   406  ARG406     -0.1231
     62  CA        59.6680   27.1490   80.3700 C.3   406  ARG406      0.1694
     63  C         58.5200   26.2740   79.8960 C.2   406  ARG406      0.2592
     64  O         57.6710   25.8710   80.6880 O.2   406  ARG406     -0.2718
     65  CB        59.3740   28.5910   79.9770 C.3   406  ARG406      0.0321
     66  CG        58.3980   29.2850   80.8940 C.3   406  ARG406      0.0489
     67  CD        58.6910   30.7730   80.9320 C.3   406  ARG406      0.2205
     68  NE        57.7780   31.5850   80.1240 N.pl3 406  ARG406     -0.0865
     69  CZ        58.1280   32.6950   79.4700 C.cat 406  ARG406      0.5346
     70  NH1       59.3700   33.1630   79.5460 N.pl3 406  ARG406      0.1354
     71  NH2       57.2140   33.3830   78.7970 N.pl3 406  ARG406      0.1354
     72  N         58.4860   25.9900   78.6020 N.am  407  TYR407     -0.1976
     73  CA        57.4150   25.1780   78.0520 C.3   407  TYR407      0.1639
     74  C         57.5560   23.6790   78.2760 C.2   407  TYR407      0.2290
     75  O         56.5670   22.9510   78.2410 O.2   407  TYR407     -0.2864
     76  CB        57.2520   25.4830   76.5710 C.3   407  TYR407      0.0560
     77  CG        56.2250   26.5580   76.3290 C.ar  407  TYR407     -0.0198
     78  CD1       56.5190   27.8950   76.5830 C.ar  407  TYR407     -0.0009
     79  CD2       54.9500   26.2360   75.8640 C.ar  407  TYR407     -0.0009
     80  CE1       55.5670   28.8880   76.3840 C.ar  407  TYR407      0.0417
     81  CE2       53.9900   27.2200   75.6610 C.ar  407  TYR407      0.0417
     82  CZ        54.3050   28.5420   75.9220 C.ar  407  TYR407      0.1957
     83  OH        53.3490   29.5140   75.7350 O.3   407  TYR407     -0.2866
     84  N         58.2380   30.0720   68.5340 N.3   426  LEU426     -0.1245
     85  CA        57.7370   31.0720   69.4690 C.3   426  LEU426      0.1561
     86  C         58.7820   32.1680   69.6740 C.2   426  LEU426      0.2260
     87  O         58.4420   33.3400   69.8120 O.2   426  LEU426     -0.2867
     88  CB        57.3900   30.4240   70.8180 C.3   426  LEU426      0.0270
     89  CG        56.0890   29.6110   70.8730 C.3   426  LEU426      0.0019
     90  CD1       56.0190   28.8450   72.1840 C.3   426  LEU426      0.0001
     91  CD2       54.8890   30.5330   70.7280 C.3   426  LEU426      0.0001
     92  N         59.1090   35.1010   66.9040 N.3   429  VAL429     -0.1231
     93  CA        58.2060   36.2430   66.8490 C.3   429  VAL429      0.1692
     94  C         58.9400   37.4660   67.3930 C.2   429  VAL429      0.2592
     95  O         58.6360   38.6000   67.0220 O.2   429  VAL429     -0.2718
     96  CB        56.9580   36.0270   67.7080 C.3   429  VAL429      0.0266
     97  CG1       56.0610   37.2450   67.6950 C.3   429  VAL429      0.0020
     98  CG2       56.1790   34.7600   67.2010 C.3   429  VAL429      0.0020
     99  N         59.9020   37.2270   68.2750 N.am  430  GLY430     -0.1957
    100  CA        60.6590   38.3280   68.8410 C.3   430  GLY430      0.1869
    101  C         61.3170   39.1380   67.7420 C.2   430  GLY430      0.2309
    102  O         61.1130   40.3470   67.6440 O.2   430  GLY430     -0.2863
    103  N         58.4240   40.8220   65.4560 N.3   433  CYS433     -0.1221
    104  CA        57.6300   41.9490   65.9280 C.3   433  CYS433      0.1808
    105  C         58.2660   42.9790   66.8420 C.2   433  CYS433      0.2601
    106  O         57.9050   44.1510   66.7950 O.2   433  CYS433     -0.2717
    107  CB        56.3750   41.4100   66.6100 C.3   433  CYS433      0.0970
    108  SG        55.5200   40.1430   65.6280 S.3   433  CYS433     -0.0800
    109  N         59.2030   42.5640   67.6790 N.am  434  CYS434     -0.1970
    110  CA        59.7980   43.5160   68.6030 C.3   434  CYS434      0.1712
    111  C         60.3270   44.8080   67.9790 C.2   434  CYS434      0.2296
    112  O         60.2410   45.8620   68.6080 O.2   434  CYS434     -0.2864
    113  CB        60.8940   42.8390   69.4260 C.3   434  CYS434      0.0983
    114  SG        60.2540   41.6480   70.6590 S.3   434  CYS434     -0.0798
    115  N         52.5460   40.3150   67.1950 N.3   445  ALA445     -0.1245
    116  CA        52.8920   39.2750   68.1490 C.3   445  ALA445      0.1562
    117  C         51.8090   38.2630   68.5190 C.2   445  ALA445      0.2260
    118  O         51.9710   37.0650   68.2790 O.2   445  ALA445     -0.2867
    119  CB        53.4380   39.9220   69.4150 C.3   445  ALA445      0.0290
    120  N         51.4280   34.2930   67.5020 N.3   449  LEU449     -0.1245
    121  CA        51.4520   33.2800   68.5510 C.3   449  LEU449      0.1561
    122  C         50.2600   32.3440   68.4050 C.2   449  LEU449      0.2260
    123  O         50.3270   31.1760   68.7820 O.2   449  LEU449     -0.2867
    124  CB        51.4410   33.9490   69.9270 C.3   449  LEU449      0.0270
    125  CG        52.7440   34.6830   70.2620 C.3   449  LEU449      0.0019
    126  CD1       52.5640   35.5120   71.5160 C.3   449  LEU449      0.0001
    127  CD2       53.8710   33.6770   70.4450 C.3   449  LEU449      0.0001
    128  N         50.8870   28.3380   68.1980 N.3   453  LEU453     -0.1245
    129  CA        50.2330   27.4580   69.1620 C.3   453  LEU453      0.1561
    130  C         49.2490   26.4990   68.4920 C.2   453  LEU453      0.2260
    131  O         49.0790   25.3660   68.9440 O.2   453  LEU453     -0.2867
    132  CB        49.5230   28.2850   70.2410 C.3   453  LEU453      0.0270
    133  CG        50.4460   28.9660   71.2610 C.3   453  LEU453      0.0019
    134  CD1       49.6640   29.9830   72.0820 C.3   453  LEU453      0.0001
    135  CD2       51.0690   27.9180   72.1630 C.3   453  LEU453      0.0001
    136  N         46.1990   31.3400   73.8310 N.3   481  ARG481     -0.1245
    137  CA        47.3960   32.0030   74.3380 C.3   481  ARG481      0.1563
    138  C         47.2920   32.2740   75.8360 C.2   481  ARG481      0.2260
    139  O         48.1550   31.8500   76.6070 O.2   481  ARG481     -0.2867
    140  CB        47.6470   33.3120   73.5790 C.3   481  ARG481      0.0307
    141  CG        49.1170   33.7110   73.5050 C.3   481  ARG481      0.0489
    142  CD        49.4590   34.7660   74.5410 C.3   481  ARG481      0.2205
    143  NE        48.3330   35.6580   74.7960 N.pl3 481  ARG481     -0.0865
    144  CZ        48.0060   36.1270   75.9950 C.cat 481  ARG481      0.5346
    145  NH1       48.7200   35.7920   77.0610 N.pl3 481  ARG481      0.1354
    146  NH2       46.9650   36.9370   76.1280 N.pl3 481  ARG481      0.1354
    147  N         49.6280   30.6340   78.6590 N.3   485  SER485     -0.1217
    148  CA        50.3870   31.5810   79.4590 C.3   485  SER485      0.1889
    149  C         50.1080   31.3330   80.9380 C.2   485  SER485      0.2288
    150  O         50.9620   31.5710   81.7930 O.2   485  SER485     -0.2866
    151  CB        49.9870   33.0100   79.0940 C.3   485  SER485      0.2089
    152  OG        50.8550   33.5440   78.1110 O.3   485  SER485     -0.2183
@<TRIPOS>BOND
     1   103   104    1
     2   108   107    1
     3   104   107    1
     4   104   105    1
     5   106   105    2
     6   105   109   am
     7    93    92    1
     8    93    94    1
     9    93    96    1
    10    95    94    2
    11   115   116    1
    12    98    96    1
    13    94    99   am
    14   120   121    1
    15   102   101    2
    16   109   110    1
    17    97    96    1
    18   101   100    1
    19   111   110    1
    20   111   112    2
    21   116   117    1
    22   116   119    1
    23   128   129    1
    24    99   100    1
    25   118   117    2
    26   122   121    1
    27   122   123    2
    28   130   131    2
    29   130   129    1
    30    84    85    1
    31   121   124    1
    32   110   113    1
    33    41    40   ar
    34    41    39   ar
    35   129   132    1
    36    40    38   ar
    37   113   114    1
    38    85    86    1
    39    85    88    1
    40    39    37   ar
    41    86    87    2
    42   124   125    1
    43   132   133    1
    44   125   127    1
    45   125   126    1
    46   114    30    1
    47    91    89    1
    48    38    36   ar
    49    88    89    1
    50    89    90    1
    51    37    36   ar
    52   133   134    1
    53   133   135    1
    54    36    35    1
    55    30    29    1
    56    16    14    1
    57    15    13    1
    58    49    51   ar
    59    49    47   ar
    60    34    33    2
    61    35    32    1
    62    51    52   ar
    63    46    47    1
    64    46    43    1
    65    59    58    1
    66    29    26    1
    67    14    13    1
    68    33    32    1
    69   141   140    1
    70   141   142    1
    71   140   137    1
    72    47    48   ar
    73    42    43    1
    74   136   137    1
    75    13    10    1
    76    44    43    1
    77    44    45    2
    78    26    27    1
    79    26    25    1
    80    32    31    1
    81    28    27    2
    82   137   138    1
    83    52    50   ar
    84   142   143    1
    85    58    57    1
    86    58    60    1
    87   143   144    2
    88    12    11    2
    89    10    11    1
    90    10     9    1
    91    57    54    1
    92    48    50   ar
    93    25    19   am
    94    20    19    2
    95    19    18    1
    96    81    79   ar
    97    81    82   ar
    98    83    82    1
    99   138   139    2
   100    79    77   ar
   101    82    80   ar
   102    21    18    1
   103    21    22    1
   104   144   146    1
   105   144   145    1
   106     9     3   am
   107    54    55    1
   108    54    53    1
   109    55    56    2
   110    77    76    1
   111    77    78   ar
   112    80    78   ar
   113    76    73    1
   114    18    17    1
   115     8     6    1
   116    22    23    2
   117    22    24   am
   118     4     3    2
   119     3     2    1
   120     6     5    1
   121     6     7    1
   122     5     2    1
   123    73    74    1
   124    73    72    1
   125   152   151    1
   126     2     1    1
   127    75    74    2
   128    72    63   am
   129   147   148    1
   130    71    69    1
   131   151   148    1
   132   148   149    1
   133    69    70    1
   134    69    68    2
   135    61    62    1
   136    63    62    1
   137    63    64    2
   138    65    62    1
   139    65    66    1
   140    68    67    1
   141    66    67    1
   142   149   150    2
