@<TRIPOS>MOLECULE
tmp/1e7eA09.pdb
 121 111 0 0 0
SMALL
GASTEIGER

@<TRIPOS>ATOM
      1  N         29.1860    0.6380    0.7430 N.3   207  ARG207     -0.1245
      2  CA        28.2250    1.2830   -0.1380 C.3   207  ARG207      0.1563
      3  C         27.2500    2.1800    0.6100 C.2   207  ARG207      0.2260
      4  O         27.1240    3.3710    0.3050 O.2   207  ARG207     -0.2867
      5  CB        27.4400    0.2320   -0.9240 C.3   207  ARG207      0.0307
      6  CG        26.9400    0.7360   -2.2750 C.3   207  ARG207      0.0489
      7  CD        25.5330    0.2540   -2.5730 C.3   207  ARG207      0.2205
      8  NE        25.0180    0.8100   -3.8210 N.pl3 207  ARG207     -0.0865
      9  CZ        23.7610    0.6740   -4.2340 C.cat 207  ARG207      0.5346
     10  NH1       22.8890   -0.0050   -3.5020 N.pl3 207  ARG207      0.1354
     11  NH2       23.3730    1.2160   -5.3800 N.pl3 207  ARG207      0.1354
     12  N         28.7490    5.2070    2.1950 N.3   210  LYS210     -0.1231
     13  CA        29.0660    6.2080    1.1900 C.3   210  LYS210      0.1693
     14  C         27.7960    6.9450    0.7980 C.2   210  LYS210      0.2591
     15  O         27.8210    8.1510    0.5670 O.2   210  LYS210     -0.2718
     16  CB        29.6860    5.5410   -0.0360 C.3   210  LYS210      0.0285
     17  CG        31.1980    5.3720    0.0630 C.3   210  LYS210      0.0035
     18  CD        31.6780    4.2090   -0.7900 C.3   210  LYS210      0.0206
     19  CE        32.9900    4.5390   -1.4900 C.3   210  LYS210      0.1093
     20  NZ        33.4330    3.4400   -2.4040 N.3   210  LYS210     -0.1314
     21  N         26.6870    6.2160    0.7330 N.am  211  ALA211     -0.1980
     22  CA        25.4070    6.8180    0.3770 C.3   211  ALA211      0.1597
     23  C         24.9950    7.7860    1.4740 C.2   211  ALA211      0.2287
     24  O         24.4410    8.8570    1.2240 O.2   211  ALA211     -0.2864
     25  CB        24.3440    5.7430    0.2180 C.3   211  ALA211      0.0319
     26  N         27.1730   10.9320    1.3810 N.3   214  VAL214     -0.1245
     27  CA        26.8950   11.8190    0.2630 C.3   214  VAL214      0.1561
     28  C         25.7690   12.7650    0.6300 C.2   214  VAL214      0.2260
     29  O         25.9200   13.9770    0.5160 O.2   214  VAL214     -0.2867
     30  CB        26.5110   11.0230   -1.0180 C.3   214  VAL214      0.0252
     31  CG1       25.7400   11.9100   -1.9950 C.3   214  VAL214      0.0019
     32  CG2       27.7610   10.4890   -1.6740 C.3   214  VAL214      0.0019
     33  N         29.6200   17.8910   -7.3660 N.3   226  PHE226     -0.1241
     34  CA        29.5180   16.4640   -7.1090 C.3   226  PHE226      0.1605
     35  C         30.8760   15.7840   -7.1790 C.2   226  PHE226      0.2264
     36  O         31.1270   14.8060   -6.4880 O.2   226  PHE226     -0.2867
     37  CB        28.5800   15.8090   -8.1090 C.3   226  PHE226      0.0534
     38  CG        28.4120   14.3400   -7.8950 C.ar  226  PHE226     -0.0203
     39  CD1       29.3720   13.4430   -8.3480 C.ar  226  PHE226     -0.0042
     40  CD2       27.3020   13.8490   -7.2240 C.ar  226  PHE226     -0.0042
     41  CE1       29.2290   12.0720   -8.1340 C.ar  226  PHE226     -0.0003
     42  CE2       27.1480   12.4820   -7.0050 C.ar  226  PHE226     -0.0003
     43  CZ        28.1170   11.5910   -7.4620 C.ar  226  PHE226     -0.0000
     44  N         32.4110   13.7400   -4.1010 N.3   230  SER230     -0.1217
     45  CA        32.8660   12.3590   -4.2530 C.3   230  SER230      0.1889
     46  C         34.2750   12.2430   -3.7300 C.2   230  SER230      0.2288
     47  O         34.6380   11.2460   -3.1080 O.2   230  SER230     -0.2866
     48  CB        32.8460   11.9340   -5.7160 C.3   230  SER230      0.2089
     49  OG        31.6020   12.2420   -6.3050 O.3   230  SER230     -0.2183
     50  N         33.7180   12.2420    0.0150 N.3   233  VAL233     -0.1231
     51  CA        33.0310   11.0590    0.5270 C.3   233  VAL233      0.1692
     52  C         33.9860    9.8790    0.5010 C.2   233  VAL233      0.2592
     53  O         33.8710    8.9480    1.2960 O.2   233  VAL233     -0.2718
     54  CB        31.7840   10.7020   -0.3110 C.3   233  VAL233      0.0266
     55  CG1       31.3830    9.2510   -0.0690 C.3   233  VAL233      0.0020
     56  CG2       30.6350   11.6260    0.0590 C.3   233  VAL233      0.0020
     57  N         34.9390    9.9270   -0.4170 N.am  234  THR234     -0.1953
     58  CA        35.9130    8.8570   -0.5490 C.3   234  THR234      0.1897
     59  C         36.8980    8.9020    0.6150 C.2   234  THR234      0.2313
     60  O         37.0750    7.9140    1.3280 O.2   234  THR234     -0.2863
     61  CB        36.6590    8.9750   -1.9030 C.3   234  THR234      0.1794
     62  OG1       35.8250    8.4480   -2.9430 O.3   234  THR234     -0.2208
     63  CG2       37.9720    8.2050   -1.8760 C.3   234  THR234      0.0378
     64  N         25.5930    3.3360   -9.6500 N.3   322  ASP322     -0.1225
     65  CA        25.8840    3.9780   -8.3750 C.3   322  ASP322      0.1805
     66  C         26.1950    5.4600   -8.4860 C.2   322  ASP322      0.2597
     67  O         25.6740    6.2710   -7.7170 O.2   322  ASP322     -0.2718
     68  CB        27.0370    3.2550   -7.6860 C.3   322  ASP322      0.1424
     69  CG        26.5630    2.0790   -6.8620 C.2   322  ASP322      0.3668
     70  OD1       25.3320    1.9220   -6.7180 O.co2 322  ASP322     -0.2456
     71  OD2       27.4140    1.3150   -6.3620 O.co2 322  ASP322     -0.2456
     72  N         27.0540    5.8120   -9.4360 N.am  323  VAL323     -0.1980
     73  CA        27.4200    7.2060   -9.6500 C.3   323  VAL323      0.1595
     74  C         26.1740    8.0230   -9.9760 C.2   323  VAL323      0.2287
     75  O         26.0920    9.2040   -9.6500 O.2   323  VAL323     -0.2864
     76  CB        28.4100    7.3490  -10.8190 C.3   323  VAL323      0.0276
     77  CG1       29.2690    8.5940  -10.6240 C.3   323  VAL323      0.0022
     78  CG2       29.2670    6.0970  -10.9260 C.3   323  VAL323      0.0022
     79  N         22.9700    7.1860   -8.9620 N.3   325  LEU325     -0.1231
     80  CA        22.1570    7.2520   -7.7600 C.3   325  LEU325      0.1693
     81  C         22.7970    8.2390   -6.7780 C.2   325  LEU325      0.2592
     82  O         22.0980    8.9560   -6.0660 O.2   325  LEU325     -0.2718
     83  CB        22.0290    5.8610   -7.1380 C.3   325  LEU325      0.0284
     84  CG        20.9550    4.9840   -7.7970 C.3   325  LEU325      0.0019
     85  CD1       21.1240    3.5470   -7.3670 C.3   325  LEU325      0.0001
     86  CD2       19.5790    5.4840   -7.4190 C.3   325  LEU325      0.0001
     87  N         24.1240    8.2890   -6.7510 N.am  326  GLY326     -0.1957
     88  CA        24.7860    9.2260   -5.8650 C.3   326  GLY326      0.1869
     89  C         24.4330   10.6410   -6.2800 C.2   326  GLY326      0.2309
     90  O         24.3200   11.5420   -5.4550 O.2   326  GLY326     -0.2863
     91  N         21.0690   11.6520   -4.9370 N.3   329  LEU329     -0.1245
     92  CA        21.2590   12.0360   -3.5380 C.3   329  LEU329      0.1561
     93  C         21.8440   13.4390   -3.4600 C.2   329  LEU329      0.2260
     94  O         21.2680   14.3270   -2.8440 O.2   329  LEU329     -0.2867
     95  CB        22.2180   11.0670   -2.8310 C.3   329  LEU329      0.0270
     96  CG        21.6970    9.7390   -2.2720 C.3   329  LEU329      0.0019
     97  CD1       22.7640    9.1360   -1.3750 C.3   329  LEU329      0.0001
     98  CD2       20.4040    9.9450   -1.5000 C.3   329  LEU329      0.0001
     99  N         16.1840    7.6480   -2.1350 N.3   348  ALA348     -0.1231
    100  CA        17.1280    7.0880   -3.0870 C.3   348  ALA348      0.1694
    101  C         16.8420    5.6050   -3.3190 C.2   348  ALA348      0.2591
    102  O         16.9010    5.1320   -4.4460 O.2   348  ALA348     -0.2718
    103  CB        18.5530    7.2850   -2.5840 C.3   348  ALA348      0.0304
    104  N         16.5190    4.8780   -2.2530 N.am  349  LYS349     -0.1980
    105  CA        16.2180    3.4550   -2.3680 C.3   349  LYS349      0.1596
    106  C         14.8500    3.2300   -3.0160 C.2   349  LYS349      0.2287
    107  O         14.5760    2.1540   -3.5460 O.2   349  LYS349     -0.2864
    108  CB        16.2580    2.7810   -0.9900 C.3   349  LYS349      0.0298
    109  CG        17.6090    2.7450   -0.3660 C.3   349  LYS349      0.0038
    110  CD        18.5290    1.7440   -0.9930 C.3   349  LYS349      0.0206
    111  CE        19.9130    1.7280   -0.2980 C.3   349  LYS349      0.1093
    112  NZ        20.7970    2.8370   -0.6830 N.3   349  LYS349     -0.1314
    113  N         15.7380    4.0040   -6.7290 N.3   352  GLU352     -0.1245
    114  CA        16.5160    2.8770   -7.2350 C.3   352  GLU352      0.1567
    115  C         15.6240    1.6930   -7.5700 C.2   352  GLU352      0.2260
    116  O         15.8660    0.9780   -8.5400 O.2   352  GLU352     -0.2867
    117  CB        17.5560    2.4430   -6.1980 C.3   352  GLU352      0.0388
    118  CG        18.3350    1.1850   -6.5790 C.3   352  GLU352      0.1160
    119  CD        19.1040    0.5740   -5.4100 C.2   352  GLU352      0.3649
    120  OE1       18.5080    0.4110   -4.3220 O.co2 352  GLU352     -0.2457
    121  OE2       20.3030    0.2520   -5.5800 O.co2 352  GLU352     -0.2457
@<TRIPOS>BOND
     1    78    76    1
     2    76    77    1
     3    76    73    1
     4    74    75    2
     5    74    73    1
     6    73    72    1
     7    64    65    1
     8    72    66   am
     9    79    80    1
    10   116   115    2
    11    66    65    1
    12    66    67    2
    13    65    68    1
    14    39    41   ar
    15    39    38   ar
    16    41    43   ar
    17    37    38    1
    18    37    34    1
    19    38    40   ar
    20    84    86    1
    21    84    85    1
    22    84    83    1
    23    80    83    1
    24    80    81    1
    25    68    69    1
    26   115   114    1
    27    43    42   ar
    28    33    34    1
    29   114   113    1
    30   114   117    1
    31    40    42   ar
    32    35    34    1
    33    35    36    2
    34    69    70   ar
    35    69    71   ar
    36    81    87   am
    37    81    82    2
    38    87    88    1
    39   118   117    1
    40   118   119    1
    41    49    48    1
    42    89    88    1
    43    89    90    2
    44    48    45    1
    45   121   119   ar
    46   119   120   ar
    47    11     9    1
    48    91    92    1
    49   102   101    2
    50    45    44    1
    51    45    46    1
    52     9     8    2
    53     9    10    1
    54     8     7    1
    55    46    47    2
    56   107   106    2
    57    92    93    1
    58    92    95    1
    59    93    94    2
    60   101   100    1
    61   101   104   am
    62   100   103    1
    63   100    99    1
    64   106   105    1
    65    62    61    1
    66    95    96    1
    67     7     6    1
    68    20    19    1
    69   105   104    1
    70   105   108    1
    71     6     5    1
    72    96    98    1
    73    96    97    1
    74    31    30    1
    75    61    63    1
    76    61    58    1
    77    32    30    1
    78    19    18    1
    79    30    27    1
    80   110   109    1
    81   110   111    1
    82   108   109    1
    83     5     2    1
    84    18    17    1
    85   112   111    1
    86    58    57    1
    87    58    59    1
    88    57    52   am
    89    54    55    1
    90    54    56    1
    91    54    51    1
    92     2     3    1
    93     2     1    1
    94    16    17    1
    95    16    13    1
    96    50    51    1
    97    25    22    1
    98    27    28    1
    99    27    26    1
   100     4     3    2
   101    22    21    1
   102    22    23    1
   103    52    51    1
   104    52    53    2
   105    29    28    2
   106    15    14    2
   107    59    60    2
   108    21    14   am
   109    14    13    1
   110    13    12    1
   111    24    23    2
