@<TRIPOS>MOLECULE
tmp/1e7eA07.pdb
 122 113 0 0 0
SMALL
GASTEIGER

@<TRIPOS>ATOM
      1  N         36.0860    4.2410   28.1530 N.3   144  HIS144     -0.1241
      2  CA        35.7060    4.4450   26.7530 C.3   144  HIS144      0.1621
      3  C         37.0130    4.4010   25.9530 C.2   144  HIS144      0.2264
      4  O         37.4840    5.4240   25.4500 O.2   144  HIS144     -0.2867
      5  CB        35.0400    5.8090   26.5770 C.3   144  HIS144      0.0745
      6  CG        33.7250    5.9450   27.2860 C.ar  144  HIS144      0.0817
      7  ND1       33.6150    6.4840   28.5510 N.ar  144  HIS144     -0.2268
      8  CD2       32.4630    5.6620   26.8860 C.ar  144  HIS144      0.1154
      9  CE1       32.3410    6.5280   28.8970 C.ar  144  HIS144      0.1986
     10  NE2       31.6190    6.0370   27.9080 N.ar  144  HIS144     -0.2212
     11  N         25.1800   14.0010   28.9460 N.3   185  ASP185     -0.1239
     12  CA        24.3470   13.5260   27.8550 C.3   185  ASP185      0.1674
     13  C         25.0850   13.6330   26.5250 C.2   185  ASP185      0.2266
     14  O         25.0760   12.7060   25.7200 O.2   185  ASP185     -0.2867
     15  CB        23.0590   14.3380   27.7870 C.3   185  ASP185      0.1410
     16  CG        22.0510   13.9060   28.8230 C.2   185  ASP185      0.3668
     17  OD1       22.2940   12.8740   29.4940 O.co2 185  ASP185     -0.2456
     18  OD2       21.0200   14.6010   28.9630 O.co2 185  ASP185     -0.2456
     19  N         27.8800   11.1730   26.2500 N.3   188  LYS188     -0.1231
     20  CA        27.3460    9.8230   26.1090 C.3   188  LYS188      0.1693
     21  C         26.7760    9.6160   24.7140 C.2   188  LYS188      0.2591
     22  O         26.9040    8.5390   24.1320 O.2   188  LYS188     -0.2718
     23  CB        26.2670    9.5670   27.1650 C.3   188  LYS188      0.0285
     24  CG        26.8320    9.1360   28.5210 C.3   188  LYS188      0.0035
     25  CD        25.9120    8.1520   29.2340 C.3   188  LYS188      0.0206
     26  CE        24.5120    8.7340   29.4170 C.3   188  LYS188      0.1093
     27  NZ        23.5350    7.7070   29.8770 N.3   188  LYS188     -0.1314
     28  N         26.1400   10.6540   24.1840 N.am  189  ALA189     -0.1980
     29  CA        25.5800   10.5890   22.8470 C.3   189  ALA189      0.1597
     30  C         26.7520   10.4550   21.8790 C.2   189  ALA189      0.2287
     31  O         26.7440    9.5980   20.9990 O.2   189  ALA189     -0.2864
     32  CB        24.7890   11.8510   22.5430 C.3   189  ALA189      0.0319
     33  N         29.8460    9.2860   22.2350 N.3   191  SER191     -0.1202
     34  CA        30.4740    7.9760   22.2430 C.3   191  SER191      0.2020
     35  C         29.5620    6.9270   21.6050 C.2   191  SER191      0.2618
     36  O         30.0380    5.9600   21.0110 O.2   191  SER191     -0.2717
     37  CB        30.8140    7.5740   23.6760 C.3   191  SER191      0.2103
     38  OG        30.7450    6.1690   23.8410 O.3   191  SER191     -0.2182
     39  N         28.2520    7.1200   21.7310 N.am  192  ALA192     -0.1979
     40  CA        27.2910    6.1860   21.1540 C.3   192  ALA192      0.1597
     41  C         27.1990    6.3470   19.6270 C.2   192  ALA192      0.2287
     42  O         26.9740    5.3750   18.9030 O.2   192  ALA192     -0.2864
     43  CB        25.9140    6.3870   21.7900 C.3   192  ALA192      0.0319
     44  N         30.4070    4.6970   18.1030 N.3   195  ARG195     -0.1245
     45  CA        30.2180    3.2530   18.1650 C.3   195  ARG195      0.1563
     46  C         29.1830    2.8050   17.1390 C.2   195  ARG195      0.2260
     47  O         29.3170    1.7480   16.5210 O.2   195  ARG195     -0.2867
     48  CB        29.7670    2.8480   19.5710 C.3   195  ARG195      0.0307
     49  CG        30.9420    2.6600   20.5050 C.3   195  ARG195      0.0489
     50  CD        30.4470    1.7930   21.6910 C.3   195  ARG195      0.2205
     51  NE        31.6340    1.6460   22.5560 N.pl3 195  ARG195     -0.0865
     52  CZ        31.8330    2.5540   23.5230 C.cat 195  ARG195      0.5346
     53  NH1       30.9610    3.5320   23.7530 N.pl3 195  ARG195      0.1354
     54  NH2       32.9060    2.4740   24.3010 N.pl3 195  ARG195      0.1354
     55  N         14.6830    9.6350   27.7970 N.3   427  ASN427     -0.1240
     56  CA        15.5470   10.1380   26.7300 C.3   427  ASN427      0.1653
     57  C         14.7510   10.7650   25.5950 C.2   427  ASN427      0.2266
     58  O         15.0300   11.8850   25.1790 O.2   427  ASN427     -0.2867
     59  CB        16.3850    9.0040   26.1650 C.3   427  ASN427      0.1155
     60  CG        17.4440    8.5500   27.1200 C.2   427  ASN427      0.2627
     61  OD1       17.9280    9.3350   27.9300 O.2   427  ASN427     -0.2716
     62  ND2       17.8180    7.2730   27.0380 N.am  427  ASN427     -0.0877
     63  N         13.5310   14.1810   26.3330 N.3   430  LYS430     -0.1231
     64  CA        14.5930   15.1760   26.2760 C.3   430  LYS430      0.1693
     65  C         14.8340   15.5720   24.8340 C.2   430  LYS430      0.2591
     66  O         15.0690   16.7390   24.5290 O.2   430  LYS430     -0.2718
     67  CB        15.8820   14.6130   26.8580 C.3   430  LYS430      0.0285
     68  CG        15.7120   13.9920   28.2210 C.3   430  LYS430      0.0035
     69  CD        16.9540   14.1990   29.0580 C.3   430  LYS430      0.0206
     70  CE        17.6710   12.8860   29.2700 C.3   430  LYS430      0.1093
     71  NZ        19.1100   13.0890   29.5830 N.3   430  LYS430     -0.1314
     72  N         14.7920   14.5890   23.9440 N.am  431  VAL431     -0.1980
     73  CA        14.9930   14.8580   22.5300 C.3   431  VAL431      0.1595
     74  C         13.8900   15.8280   22.1260 C.2   431  VAL431      0.2287
     75  O         14.0910   16.6940   21.2820 O.2   431  VAL431     -0.2864
     76  CB        14.9050   13.5550   21.6840 C.3   431  VAL431      0.0276
     77  CG1       14.8030   13.8860   20.1990 C.3   431  VAL431      0.0022
     78  CG2       16.1340   12.6940   21.9420 C.3   431  VAL431      0.0022
     79  N         15.0570   19.5660   23.1960 N.3   434  LYS434     -0.1245
     80  CA        16.1670   20.2110   22.4970 C.3   434  LYS434      0.1561
     81  C         15.8790   20.4380   21.0240 C.2   434  LYS434      0.2260
     82  O         16.5040   21.2910   20.3990 O.2   434  LYS434     -0.2867
     83  CB        17.4700   19.4190   22.6160 C.3   434  LYS434      0.0271
     84  CG        17.3350   18.0300   23.1510 C.3   434  LYS434      0.0035
     85  CD        18.7090   17.4000   23.2750 C.3   434  LYS434      0.0206
     86  CE        19.0640   17.1100   24.7270 C.3   434  LYS434      0.1093
     87  NZ        19.3340   15.6550   24.9390 N.3   434  LYS434     -0.1314
     88  N         19.5190   12.4780   17.5430 N.3   450  TYR450     -0.1241
     89  CA        19.4080   11.9040   18.8730 C.3   450  TYR450      0.1605
     90  C         18.7400   10.5440   18.8780 C.2   450  TYR450      0.2264
     91  O         19.2200    9.6120   19.5220 O.2   450  TYR450     -0.2867
     92  CB        18.6730   12.8890   19.7890 C.3   450  TYR450      0.0534
     93  CG        19.5670   14.0410   20.2020 C.ar  450  TYR450     -0.0201
     94  CD1       20.8280   13.7960   20.7560 C.ar  450  TYR450     -0.0009
     95  CD2       19.1890   15.3670   19.9800 C.ar  450  TYR450     -0.0009
     96  CE1       21.6950   14.8350   21.0720 C.ar  450  TYR450      0.0417
     97  CE2       20.0540   16.4200   20.2950 C.ar  450  TYR450      0.0417
     98  CZ        21.3060   16.1430   20.8390 C.ar  450  TYR450      0.1957
     99  OH        22.1810   17.1660   21.1370 O.3   450  TYR450     -0.2866
    100  N         20.9560    7.1390   18.3200 N.3   453  VAL453     -0.1231
    101  CA        21.6560    6.5120   19.4400 C.3   453  VAL453      0.1692
    102  C         20.6810    5.9710   20.4780 C.2   453  VAL453      0.2591
    103  O         20.8990    4.9030   21.0570 O.2   453  VAL453     -0.2718
    104  CB        22.6140    7.4970   20.1460 C.3   453  VAL453      0.0266
    105  CG1       23.8770    7.6680   19.3200 C.3   453  VAL453      0.0020
    106  CG2       21.9260    8.8320   20.3620 C.3   453  VAL453      0.0020
    107  N         19.6080    6.7130   20.7180 N.am  454  VAL454     -0.1980
    108  CA        18.6130    6.2820   21.6860 C.3   454  VAL454      0.1595
    109  C         18.0710    4.9220   21.2570 C.2   454  VAL454      0.2287
    110  O         18.1120    3.9490   22.0160 O.2   454  VAL454     -0.2864
    111  CB        17.4480    7.2860   21.7680 C.3   454  VAL454      0.0276
    112  CG1       16.3690    6.7470   22.6880 C.3   454  VAL454      0.0022
    113  CG2       17.9560    8.6330   22.2610 C.3   454  VAL454      0.0022
    114  N         20.5080    2.1250   21.4980 N.3   457  GLN457     -0.1245
    115  CA        20.7510    1.6490   22.8520 C.3   457  GLN457      0.1566
    116  C         19.6880    0.6090   23.1750 C.2   457  GLN457      0.2260
    117  O         19.9780   -0.4470   23.7360 O.2   457  GLN457     -0.2867
    118  CB        20.6620    2.8020   23.8540 C.3   457  GLN457      0.0367
    119  CG        21.9250    3.6440   23.9450 C.3   457  GLN457      0.0905
    120  CD        23.2020    2.8120   23.9330 C.2   457  GLN457      0.2608
    121  OE1       23.2320    1.6800   24.4290 O.2   457  GLN457     -0.2717
    122  NE2       24.2670    3.3750   23.3650 N.am  457  GLN457     -0.0878
@<TRIPOS>BOND
     1    47    46    2
     2    46    45    1
     3    88    89    1
     4    44    45    1
     5    45    48    1
     6   100   101    1
     7    89    90    1
     8    89    92    1
     9    90    91    2
    10    42    41    2
    11   105   104    1
    12   101   104    1
    13   101   102    1
    14    48    49    1
    15    41    40    1
    16    92    93    1
    17    95    93   ar
    18    95    97   ar
    19   104   106    1
    20    77    76    1
    21    93    94   ar
    22    97    98   ar
    23    82    81    2
    24   102   107   am
    25   102   103    2
    26    49    50    1
    27   107   108    1
    28    94    96   ar
    29    98    96   ar
    30    98    99    1
    31    31    30    2
    32    36    35    2
    33    81    80    1
    34    40    39    1
    35    40    43    1
    36   109   108    1
    37   109   110    2
    38    75    74    2
    39   114   115    1
    40    35    39   am
    41    35    34    1
    42    76    78    1
    43    76    73    1
    44   108   111    1
    45    50    51    1
    46   111   113    1
    47   111   112    1
    48    30    29    1
    49    74    73    1
    50    33    34    1
    51    34    37    1
    52    80    83    1
    53    80    79    1
    54    73    72    1
    55    32    29    1
    56    51    52    2
    57    83    84    1
    58    29    28    1
    59   115   116    1
    60   115   118    1
    61    84    85    1
    62   116   117    2
    63    85    86    1
    64   122   120   am
    65    52    53    1
    66    52    54    1
    67    37    38    1
    68   118   119    1
    69   120   119    1
    70   120   121    2
    71    72    65   am
    72    22    21    2
    73    28    21   am
    74    66    65    2
    75    21    20    1
    76    86    87    1
    77    65    64    1
    78    58    57    2
    79     4     3    2
    80    57    56    1
    81    14    13    2
    82     3     2    1
    83    20    19    1
    84    20    23    1
    85    59    56    1
    86    59    60    1
    87    64    63    1
    88    64    67    1
    89    13    12    1
    90     5     2    1
    91     5     6    1
    92    56    55    1
    93     2     1    1
    94    67    68    1
    95     8     6   ar
    96     8    10   ar
    97    62    60   am
    98    60    61    2
    99    23    24    1
   100     6     7   ar
   101    15    12    1
   102    15    16    1
   103    12    11    1
   104    10     9   ar
   105    68    69    1
   106    24    25    1
   107     7     9   ar
   108    16    18   ar
   109    16    17   ar
   110    69    70    1
   111    25    26    1
   112    70    71    1
   113    26    27    1
