@<TRIPOS>MOLECULE
tmp/1e7eA03.pdb
 159 146 0 0 0
SMALL
GASTEIGER

@<TRIPOS>ATOM
      1  N          4.9230   13.5590   12.0210 N.3   385  LEU385     -0.1245
      2  CA         5.3370   13.0150   13.3140 C.3   385  LEU385      0.1561
      3  C          5.8800   14.1290   14.2080 C.2   385  LEU385      0.2260
      4  O          5.4840   14.2570   15.3670 O.2   385  LEU385     -0.2867
      5  CB         6.4220   11.9470   13.1260 C.3   385  LEU385      0.0270
      6  CG         6.1920   10.5290   13.6670 C.3   385  LEU385      0.0019
      7  CD1        7.3700   10.1140   14.5330 C.3   385  LEU385      0.0001
      8  CD2        4.9050   10.4720   14.4670 C.3   385  LEU385      0.0001
      9  N          4.1340   15.7740   17.6600 N.3   389  ASN389     -0.1240
     10  CA         4.8250   15.5900   18.9290 C.3   389  ASN389      0.1653
     11  C          5.3520   16.8680   19.5580 C.2   389  ASN389      0.2266
     12  O          5.5040   16.9480   20.7760 O.2   389  ASN389     -0.2867
     13  CB         5.9690   14.5960   18.7600 C.3   389  ASN389      0.1155
     14  CG         5.5080   13.1630   18.8980 C.2   389  ASN389      0.2627
     15  OD1        5.6630   12.5500   19.9540 O.2   389  ASN389     -0.2716
     16  ND2        4.9280   12.6210   17.8290 N.am  389  ASN389     -0.0877
     17  N          2.2330    5.3380   25.6990 N.3   408  ARG408     -0.1231
     18  CA         2.3080    4.9250   24.3030 C.3   408  ARG408      0.1694
     19  C          3.1590    3.6960   24.0600 C.2   408  ARG408      0.2592
     20  O          2.7070    2.7290   23.4610 O.2   408  ARG408     -0.2718
     21  CB         2.8430    6.0670   23.4350 C.3   408  ARG408      0.0321
     22  CG         2.3070    6.0430   22.0030 C.3   408  ARG408      0.0489
     23  CD         3.2160    6.7830   21.0390 C.3   408  ARG408      0.2205
     24  NE         2.8580    8.1950   20.9420 N.pl3 408  ARG408     -0.0865
     25  CZ         3.7280    9.1740   20.7070 C.cat 408  ARG408      0.5346
     26  NH1        5.0180    8.8960   20.5410 N.pl3 408  ARG408      0.1354
     27  NH2        3.3100   10.4350   20.6410 N.pl3 408  ARG408      0.1354
     28  N          4.3920    3.7300   24.5320 N.am  409  TYR409     -0.1976
     29  CA         5.2930    2.6230   24.3050 C.3   409  TYR409      0.1639
     30  C          5.0640    1.3760   25.1400 C.2   409  TYR409      0.2290
     31  O          5.4460    0.2800   24.7300 O.2   409  TYR409     -0.2864
     32  CB         6.7310    3.1120   24.4580 C.3   409  TYR409      0.0560
     33  CG         7.0350    4.3200   23.5910 C.ar  409  TYR409     -0.0198
     34  CD1        6.4410    4.4710   22.3310 C.ar  409  TYR409     -0.0009
     35  CD2        7.8970    5.3190   24.0320 C.ar  409  TYR409     -0.0009
     36  CE1        6.6970    5.5880   21.5390 C.ar  409  TYR409      0.0417
     37  CE2        8.1610    6.4380   23.2500 C.ar  409  TYR409      0.0417
     38  CZ         7.5590    6.5680   22.0060 C.ar  409  TYR409      0.1957
     39  OH         7.8230    7.6770   21.2340 O.3   409  TYR409     -0.2866
     40  N          2.5930   -0.6390   23.3130 N.3   412  LYS412     -0.1231
     41  CA         3.1550   -1.1580   22.0730 C.3   412  LYS412      0.1693
     42  C          3.9580   -2.4180   22.3550 C.2   412  LYS412      0.2591
     43  O          3.8070   -3.4210   21.6650 O.2   412  LYS412     -0.2718
     44  CB         4.0650   -0.1100   21.4220 C.3   412  LYS412      0.0285
     45  CG         3.3510    0.9150   20.5430 C.3   412  LYS412      0.0035
     46  CD         4.3630    1.8920   19.9280 C.3   412  LYS412      0.0206
     47  CE         3.7300    2.8620   18.9280 C.3   412  LYS412      0.1093
     48  NZ         2.2820    2.5890   18.6950 N.3   412  LYS412     -0.1314
     49  N          4.8160   -2.3540   23.3700 N.am  413  VAL413     -0.1980
     50  CA         5.6520   -3.4890   23.7600 C.3   413  VAL413      0.1595
     51  C          5.6820   -3.6410   25.2860 C.2   413  VAL413      0.2287
     52  O          6.6570   -3.2590   25.9420 O.2   413  VAL413     -0.2864
     53  CB         7.1130   -3.3310   23.2390 C.3   413  VAL413      0.0276
     54  CG1        7.1310   -3.4510   21.7310 C.3   413  VAL413      0.0022
     55  CG2        7.6960   -1.9880   23.6690 C.3   413  VAL413      0.0022
     56  N          8.7660   -5.4240   27.2870 N.3   416  VAL416     -0.1245
     57  CA         9.9950   -4.7260   27.6840 C.3   416  VAL416      0.1561
     58  C         10.0440   -4.3920   29.1780 C.2   416  VAL416      0.2260
     59  O          9.0540   -3.9460   29.7530 O.2   416  VAL416     -0.2867
     60  CB        10.1820   -3.4180   26.8730 C.3   416  VAL416      0.0252
     61  CG1       11.4770   -2.7280   27.2890 C.3   416  VAL416      0.0019
     62  CG2       10.2070   -3.7290   25.3840 C.3   416  VAL416      0.0019
     63  N         13.7660   -0.0820   31.7100 N.3   420  THR420     -0.1203
     64  CA        14.2340    0.1700   30.3530 C.3   420  THR420      0.1994
     65  C         13.2430    1.1400   29.7110 C.2   420  THR420      0.2617
     66  O         13.6280    2.1700   29.1510 O.2   420  THR420     -0.2717
     67  CB        14.2910   -1.1580   29.5470 C.3   420  THR420      0.1784
     68  OG1       15.3830   -1.9570   30.0220 O.3   420  THR420     -0.2211
     69  CG2       14.4800   -0.8900   28.0630 C.3   420  THR420      0.0376
     70  N         11.9610    0.8100   29.8210 N.am  421  LEU421     -0.1979
     71  CA        10.9070    1.6450   29.2720 C.3   421  LEU421      0.1596
     72  C         11.0570    3.0770   29.7590 C.2   421  LEU421      0.2287
     73  O         10.9940    4.0180   28.9690 O.2   421  LEU421     -0.2864
     74  CB         9.5350    1.1220   29.6970 C.3   421  LEU421      0.0297
     75  CG         8.8840    0.0200   28.8600 C.3   421  LEU421      0.0022
     76  CD1        7.4020   -0.0570   29.2060 C.3   421  LEU421      0.0001
     77  CD2        9.0690    0.3030   27.3720 C.3   421  LEU421      0.0001
     78  N         14.1800    4.9120   28.3320 N.3   424  VAL424     -0.1245
     79  CA        13.9140    5.2600   26.9430 C.3   424  VAL424      0.1561
     80  C         12.9260    6.4090   26.8190 C.2   424  VAL424      0.2260
     81  O         13.2160    7.4020   26.1620 O.2   424  VAL424     -0.2867
     82  CB        13.3740    4.0360   26.1520 C.3   424  VAL424      0.0252
     83  CG1       12.5720    4.4980   24.9470 C.3   424  VAL424      0.0019
     84  CG2       14.5340    3.1490   25.7040 C.3   424  VAL424      0.0019
     85  N         13.7650   10.0350   25.0890 N.3   428  LEU428     -0.1245
     86  CA        12.9450   10.5400   24.0030 C.3   428  LEU428      0.1561
     87  C         12.3600   11.8920   24.3520 C.2   428  LEU428      0.2260
     88  O         12.3380   12.7920   23.5220 O.2   428  LEU428     -0.2867
     89  CB        11.8160    9.5660   23.6870 C.3   428  LEU428      0.0270
     90  CG        12.1780    8.5120   22.6390 C.3   428  LEU428      0.0019
     91  CD1       13.2930    7.6390   23.1770 C.3   428  LEU428      0.0001
     92  CD2       10.9630    7.6740   22.2990 C.3   428  LEU428      0.0001
     93  N         17.6410   10.4410   18.1430 N.3   451  LEU451     -0.1245
     94  CA        16.8820    9.2070   18.0280 C.3   451  LEU451      0.1561
     95  C         17.7660    8.0060   17.6970 C.2   451  LEU451      0.2260
     96  O         17.6320    6.9360   18.2860 O.2   451  LEU451     -0.2867
     97  CB        15.8310    9.3710   16.9400 C.3   451  LEU451      0.0270
     98  CG        14.4090    8.9030   17.2160 C.3   451  LEU451      0.0019
     99  CD1       14.1670    8.8000   18.7020 C.3   451  LEU451      0.0001
    100  CD2       13.4440    9.8820   16.5810 C.3   451  LEU451      0.0001
    101  N         17.5700    4.8710   20.0270 N.3   455  LEU455     -0.1245
    102  CA        17.0120    3.6510   19.4630 C.3   455  LEU455      0.1561
    103  C         18.0470    2.5390   19.4730 C.2   455  LEU455      0.2260
    104  O         17.7410    1.3950   19.7960 O.2   455  LEU455     -0.2867
    105  CB        16.5530    3.8990   18.0240 C.3   455  LEU455      0.0270
    106  CG        15.0590    3.9220   17.7050 C.3   455  LEU455      0.0019
    107  CD1       14.2420    4.2740   18.9380 C.3   455  LEU455      0.0001
    108  CD2       14.8220    4.9340   16.6030 C.3   455  LEU455      0.0001
    109  N         18.4530    0.9200   22.8010 N.3   458  LEU458     -0.1245
    110  CA        17.3300    0.0310   23.0410 C.3   458  LEU458      0.1561
    111  C         17.5980   -1.3470   22.4530 C.2   458  LEU458      0.2260
    112  O         17.2370   -2.3640   23.0440 O.2   458  LEU458     -0.2867
    113  CB        16.0630    0.6190   22.4230 C.3   458  LEU458      0.0270
    114  CG        14.8320   -0.2850   22.4040 C.3   458  LEU458      0.0019
    115  CD1       14.3540   -0.5180   23.8290 C.3   458  LEU458      0.0001
    116  CD2       13.7400    0.3580   21.5620 C.3   458  LEU458      0.0001
    117  N         10.4670   -5.9690   18.6640 N.3   471  VAL471     -0.1245
    118  CA        11.5630   -5.0160   18.7740 C.3   471  VAL471      0.1561
    119  C         12.7420   -5.5680   17.9830 C.2   471  VAL471      0.2260
    120  O         13.5090   -4.8190   17.3750 O.2   471  VAL471     -0.2867
    121  CB        12.0180   -4.8060   20.2400 C.3   471  VAL471      0.0252
    122  CG1       13.2250   -3.8810   20.2780 C.3   471  VAL471      0.0019
    123  CG2       10.8860   -4.2160   21.0650 C.3   471  VAL471      0.0019
    124  N         13.3900    3.5070   12.8530 N.3   483  ARG483     -0.1245
    125  CA        12.3890    4.4290   13.3650 C.3   483  ARG483      0.1563
    126  C         10.9810    4.1590   12.8440 C.2   483  ARG483      0.2260
    127  O         10.0580    3.9380   13.6330 O.2   483  ARG483     -0.2867
    128  CB        12.7980    5.8660   13.0430 C.3   483  ARG483      0.0307
    129  CG        12.2220    6.9000   13.9860 C.3   483  ARG483      0.0489
    130  CD        10.8040    7.2700   13.5850 C.3   483  ARG483      0.2205
    131  NE        10.7420    7.8390   12.2430 N.pl3 483  ARG483     -0.0865
    132  CZ         9.6560    7.8310   11.4740 C.cat 483  ARG483      0.5346
    133  NH1        8.5250    7.2800   11.9040 N.pl3 483  ARG483      0.1354
    134  NH2        9.6930    8.3840   10.2680 N.pl3 483  ARG483      0.1354
    135  N          9.2050    1.1330   14.3920 N.3   486  PHE486     -0.1227
    136  CA         8.7310    1.3290   15.7520 C.3   486  PHE486      0.1736
    137  C          7.4880    2.1790   15.7800 C.2   486  PHE486      0.2596
    138  O          6.5200    1.8400   16.4530 O.2   486  PHE486     -0.2718
    139  CB         9.8180    1.9820   16.5930 C.3   486  PHE486      0.0547
    140  CG        10.8350    1.0110   17.1100 C.ar  486  PHE486     -0.0202
    141  CD1       10.4690    0.0170   18.0180 C.ar  486  PHE486     -0.0042
    142  CD2       12.1610    1.0830   16.6890 C.ar  486  PHE486     -0.0042
    143  CE1       11.4110   -0.8940   18.5030 C.ar  486  PHE486     -0.0003
    144  CE2       13.1150    0.1770   17.1680 C.ar  486  PHE486     -0.0003
    145  CZ        12.7370   -0.8140   18.0780 C.ar  486  PHE486     -0.0000
    146  N          7.5080    3.2880   15.0510 N.am  487  SER487     -0.1952
    147  CA         6.3420    4.1580   15.0190 C.3   487  SER487      0.1924
    148  C          5.1750    3.3480   14.5040 C.2   487  SER487      0.2314
    149  O          4.0210    3.7080   14.7150 O.2   487  SER487     -0.2863
    150  CB         6.5840    5.3510   14.0990 C.3   487  SER487      0.2116
    151  OG         7.9010    5.8350   14.2510 O.3   487  SER487     -0.2180
    152  N          4.5740   -0.2120   15.1380 N.3   489  LEU489     -0.1245
    153  CA         4.0180   -1.1680   16.0930 C.3   489  LEU489      0.1561
    154  C          2.6830   -0.6910   16.6350 C.2   489  LEU489      0.2260
    155  O          2.5190    0.4890   16.9410 O.2   489  LEU489     -0.2867
    156  CB         4.9800   -1.3700   17.2490 C.3   489  LEU489      0.0270
    157  CG         6.3340   -1.8800   16.7880 C.3   489  LEU489      0.0019
    158  CD1        7.3720   -1.6130   17.8540 C.3   489  LEU489      0.0001
    159  CD2        6.2260   -3.3590   16.4890 C.3   489  LEU489      0.0001
@<TRIPOS>BOND
     1   134   132    1
     2   132   133    1
     3   132   131    2
     4     1     2    1
     5   131   130    1
     6   126   125    1
     7   126   127    2
     8   124   125    1
     9   128   125    1
    10   128   129    1
    11     5     2    1
    12     5     6    1
    13     2     3    1
    14   130   129    1
    15     6     8    1
    16     6     7    1
    17   150   151    1
    18   150   147    1
    19     3     4    2
    20   135   136    1
    21   148   149    2
    22   148   147    1
    23   147   146    1
    24   146   137   am
    25   152   153    1
    26   136   137    1
    27   136   139    1
    28   137   138    2
    29   153   154    1
    30   153   156    1
    31   159   157    1
    32   100    98    1
    33   139   140    1
    34   108   106    1
    35   154   155    2
    36   142   140   ar
    37   142   144   ar
    38   157   156    1
    39   157   158    1
    40    97    98    1
    41    97    94    1
    42   140   141   ar
    43   144   145   ar
    44    98    99    1
    45   120   119    2
    46     9    10    1
    47    95    94    1
    48    95    96    2
    49   106   105    1
    50   106   107    1
    51    16    14   am
    52   119   118    1
    53   141   143   ar
    54   105   102    1
    55    94    93    1
    56   145   143   ar
    57   117   118    1
    58    48    47    1
    59    13    14    1
    60    13    10    1
    61   118   121    1
    62    14    15    2
    63    47    46    1
    64    10    11    1
    65   102   103    1
    66   102   101    1
    67   103   104    2
    68    11    12    2
    69    46    45    1
    70   121   122    1
    71   121   123    1
    72    26    25    1
    73    45    44    1
    74    27    25    1
    75    25    24    2
    76    24    23    1
    77    23    22    1
    78    39    38    1
    79    44    41    1
    80    36    38   ar
    81    36    34   ar
    82   116   114    1
    83    43    42    2
    84    54    53    1
    85    22    21    1
    86    38    37   ar
    87    41    42    1
    88    41    40    1
    89    92    90    1
    90    34    33   ar
    91    42    49   am
    92   114   113    1
    93   114   115    1
    94   113   110    1
    95   111   110    1
    96   111   112    2
    97    90    91    1
    98    90    89    1
    99   109   110    1
   100    53    55    1
   101    53    50    1
   102    37    35   ar
   103    49    50    1
   104    21    18    1
   105    20    19    2
   106    88    87    2
   107    33    35   ar
   108    33    32    1
   109    89    86    1
   110    50    51    1
   111    86    87    1
   112    86    85    1
   113    19    18    1
   114    19    28   am
   115    18    17    1
   116    29    32    1
   117    29    28    1
   118    29    30    1
   119    31    30    2
   120    83    82    1
   121    51    52    2
   122    62    60    1
   123    84    82    1
   124    82    79    1
   125    81    80    2
   126    80    79    1
   127    60    61    1
   128    60    57    1
   129    79    78    1
   130    56    57    1
   131    77    75    1
   132    57    58    1
   133    69    67    1
   134    75    76    1
   135    75    74    1
   136    73    72    2
   137    66    65    2
   138    58    59    2
   139    71    74    1
   140    71    72    1
   141    71    70    1
   142    67    68    1
   143    67    64    1
   144    65    70   am
   145    65    64    1
   146    64    63    1
