@<TRIPOS>MOLECULE
tmp/1e7eA04.pdb
 112 107 0 0 0
SMALL
GASTEIGER

@<TRIPOS>ATOM
      1  N          7.8950   16.6760   31.5980 N.3   399  TYR399     -0.1227
      2  CA         7.5290   15.5530   32.4510 C.3   399  TYR399      0.1736
      3  C          6.1780   14.9590   32.0690 C.2   399  TYR399      0.2595
      4  O          6.0590   13.7470   31.8880 O.2   399  TYR399     -0.2718
      5  CB         7.4940   15.9870   33.9170 C.3   399  TYR399      0.0548
      6  CG         6.8840   14.9450   34.8260 C.ar  399  TYR399     -0.0200
      7  CD1        7.6400   13.8630   35.2790 C.ar  399  TYR399     -0.0009
      8  CD2        5.5420   15.0280   35.2180 C.ar  399  TYR399     -0.0009
      9  CE1        7.0820   12.8860   36.1020 C.ar  399  TYR399      0.0417
     10  CE2        4.9710   14.0560   36.0400 C.ar  399  TYR399      0.0417
     11  CZ         5.7510   12.9850   36.4790 C.ar  399  TYR399      0.1957
     12  OH         5.2030   12.0240   37.3010 O.3   399  TYR399     -0.2866
     13  N          5.1610   15.8090   31.9610 N.am  400  LYS400     -0.1980
     14  CA         3.8260   15.3440   31.5960 C.3   400  LYS400      0.1596
     15  C          3.8470   14.8290   30.1560 C.2   400  LYS400      0.2287
     16  O          2.9310   14.1380   29.7020 O.2   400  LYS400     -0.2864
     17  CB         2.8070   16.4840   31.7400 C.3   400  LYS400      0.0298
     18  CG         1.8810   16.3490   32.9490 C.3   400  LYS400      0.0038
     19  CD         1.1170   17.6420   33.2270 C.3   400  LYS400      0.0206
     20  CE         0.0030   17.4320   34.2540 C.3   400  LYS400      0.1093
     21  NZ         0.4330   16.5710   35.3990 N.3   400  LYS400     -0.1314
     22  N          5.4630   11.1610   30.2120 N.3   403  ASN403     -0.1240
     23  CA         4.4300   10.2470   30.6980 C.3   403  ASN403      0.1653
     24  C          3.5780    9.7470   29.5440 C.2   403  ASN403      0.2266
     25  O          3.2630    8.5600   29.4580 O.2   403  ASN403     -0.2867
     26  CB         3.5240   10.9540   31.7110 C.3   403  ASN403      0.1155
     27  CG         4.1840   11.1350   33.0600 C.2   403  ASN403      0.2627
     28  OD1        5.3630   10.8020   33.2450 O.2   403  ASN403     -0.2716
     29  ND2        3.4260   11.6710   34.0150 N.am  403  ASN403     -0.0877
     30  N          2.1180   -1.0720   44.1920 N.3   505  PHE505     -0.1241
     31  CA         1.3180    0.1440   44.2950 C.3   505  PHE505      0.1605
     32  C          1.2030    0.6030   45.7400 C.2   505  PHE505      0.2264
     33  O          0.1620    1.1010   46.1730 O.2   505  PHE505     -0.2867
     34  CB        -0.0690   -0.0930   43.6940 C.3   505  PHE505      0.0534
     35  CG        -0.0260   -0.4760   42.2490 C.ar  505  PHE505     -0.0203
     36  CD1        0.1740    0.4910   41.2700 C.ar  505  PHE505     -0.0042
     37  CD2       -0.1100   -1.8090   41.8690 C.ar  505  PHE505     -0.0042
     38  CE1        0.2930    0.1360   39.9330 C.ar  505  PHE505     -0.0003
     39  CE2        0.0080   -2.1770   40.5360 C.ar  505  PHE505     -0.0003
     40  CZ         0.2130   -1.2020   39.5640 C.ar  505  PHE505     -0.0000
     41  N          2.8500    3.1740   48.1350 N.3   507  PHE507     -0.1241
     42  CA         3.7120    4.3390   48.2380 C.3   507  PHE507      0.1605
     43  C          3.8200    4.7990   49.6920 C.2   507  PHE507      0.2264
     44  O          2.8180    4.9030   50.4000 O.2   507  PHE507     -0.2867
     45  CB         3.1680    5.4700   47.3600 C.3   507  PHE507      0.0534
     46  CG         3.3550    5.2770   45.8640 C.ar  507  PHE507     -0.0203
     47  CD1        2.6640    4.3010   45.1520 C.ar  507  PHE507     -0.0042
     48  CD2        4.2350    6.0940   45.1710 C.ar  507  PHE507     -0.0042
     49  CE1        2.8610    4.1350   43.7870 C.ar  507  PHE507     -0.0003
     50  CE2        4.4070    5.9640   43.8010 C.ar  507  PHE507     -0.0003
     51  CZ         3.7760    4.9480   43.1270 C.ar  507  PHE507     -0.0000
     52  N          6.9500    7.8190   40.4940 N.3   523  LYS523     -0.1245
     53  CA         5.5870    7.8330   39.9700 C.3   523  LYS523      0.1561
     54  C          5.5240    7.2060   38.5780 C.2   523  LYS523      0.2260
     55  O          4.5680    6.4930   38.2460 O.2   523  LYS523     -0.2867
     56  CB         5.0240    9.2590   39.8810 C.3   523  LYS523      0.0271
     57  CG         5.6160   10.2930   40.8280 C.3   523  LYS523      0.0035
     58  CD         5.3890   11.6930   40.2640 C.3   523  LYS523      0.0206
     59  CE         5.1890   12.7310   41.3490 C.3   523  LYS523      0.1093
     60  NZ         4.4380   13.9120   40.8330 N.3   523  LYS523     -0.1314
     61  N          5.5090    3.4360   38.4700 N.3   526  ALA526     -0.1231
     62  CA         4.1950    2.9270   38.8580 C.3   526  ALA526      0.1694
     63  C          3.2960    2.9870   37.6390 C.2   526  ALA526      0.2591
     64  O          2.5590    2.0460   37.3390 O.2   526  ALA526     -0.2718
     65  CB         3.6110    3.7770   39.9790 C.3   526  ALA526      0.0304
     66  N          3.3720    4.1140   36.9430 N.am  527  LEU527     -0.1980
     67  CA         2.5900    4.3400   35.7410 C.3   527  LEU527      0.1596
     68  C          2.7590    3.1950   34.7460 C.2   527  LEU527      0.2287
     69  O          1.7840    2.7130   34.1790 O.2   527  LEU527     -0.2864
     70  CB         3.0210    5.6540   35.0970 C.3   527  LEU527      0.0297
     71  CG         2.1680    6.1880   33.9440 C.3   527  LEU527      0.0022
     72  CD1        0.6820    6.0010   34.2470 C.3   527  LEU527      0.0001
     73  CD2        2.5000    7.6620   33.7220 C.3   527  LEU527      0.0001
     74  N          1.1820    0.1010   35.9520 N.3   530  LEU530     -0.1245
     75  CA        -0.2480    0.3430   35.8910 C.3   530  LEU530      0.1561
     76  C         -0.8150   -0.0610   34.5270 C.2   530  LEU530      0.2260
     77  O         -1.8680   -0.7000   34.4470 O.2   530  LEU530     -0.2867
     78  CB        -0.5260    1.8240   36.1900 C.3   530  LEU530      0.0270
     79  CG        -1.9190    2.4050   35.9160 C.3   530  LEU530      0.0019
     80  CD1       -3.0090    1.4130   36.2970 C.3   530  LEU530      0.0001
     81  CD2       -2.0730    3.6930   36.7030 C.3   530  LEU530      0.0001
     82  N         -7.3520    8.1060   36.9100 N.3   545  VAL545     -0.1231
     83  CA        -6.4950    7.4680   37.8990 C.3   545  VAL545      0.1692
     84  C         -5.2370    8.2760   38.2200 C.2   545  VAL545      0.2591
     85  O         -4.7940    8.3190   39.3640 O.2   545  VAL545     -0.2718
     86  CB        -6.0630    6.0710   37.4220 C.3   545  VAL545      0.0266
     87  CG1       -5.1280    5.4400   38.4410 C.3   545  VAL545      0.0020
     88  CG2       -7.2860    5.1990   37.1930 C.3   545  VAL545      0.0020
     89  N         -4.6610    8.9140   37.2110 N.am  546  MET546     -0.1979
     90  CA        -3.4490    9.7000   37.4100 C.3   546  MET546      0.1605
     91  C         -3.7250   10.9720   38.2020 C.2   546  MET546      0.2287
     92  O         -2.9320   11.3640   39.0610 O.2   546  MET546     -0.2864
     93  CB        -2.8380   10.0660   36.0590 C.3   546  MET546      0.0413
     94  CG        -1.5580    9.3280   35.7320 C.3   546  MET546      0.0598
     95  SD        -0.8560    9.9110   34.1890 S.3   546  MET546     -0.1393
     96  CE        -2.3210    9.8260   33.0970 C.3   546  MET546      0.0692
     97  N         -4.5400   10.1610   41.8380 N.3   549  PHE549     -0.1227
     98  CA        -3.2750    9.8830   42.5060 C.3   549  PHE549      0.1736
     99  C         -2.4950   11.1850   42.6780 C.2   549  PHE549      0.2595
    100  O         -1.6950   11.3230   43.6030 O.2   549  PHE549     -0.2718
    101  CB        -2.4650    8.8840   41.6780 C.3   549  PHE549      0.0547
    102  CG        -1.1330    8.5220   42.2790 C.ar  549  PHE549     -0.0202
    103  CD1       -0.0220    9.3400   42.0890 C.ar  549  PHE549     -0.0042
    104  CD2       -0.9760    7.3390   42.9930 C.ar  549  PHE549     -0.0042
    105  CE1        1.2300    8.9810   42.5980 C.ar  549  PHE549     -0.0003
    106  CE2        0.2700    6.9710   43.5070 C.ar  549  PHE549     -0.0003
    107  CZ         1.3750    7.7930   43.3080 C.ar  549  PHE549     -0.0000
    108  N         -2.7380   12.1390   41.7850 N.am  550  ALA550     -0.1980
    109  CA        -2.0620   13.4310   41.8380 C.3   550  ALA550      0.1597
    110  C         -2.3610   14.1440   43.1570 C.2   550  ALA550      0.2287
    111  O         -1.4610   14.3680   43.9670 O.2   550  ALA550     -0.2864
    112  CB        -2.5010   14.2990   40.6630 C.3   550  ALA550      0.0319
@<TRIPOS>BOND
     1    25    24    2
     2    24    23    1
     3    16    15    2
     4    15    14    1
     5    22    23    1
     6    23    26    1
     7    14    17    1
     8    14    13    1
     9     1     2    1
    10    26    27    1
    11    17    18    1
    12     4     3    2
    13    13     3   am
    14     3     2    1
    15     2     5    1
    16    18    19    1
    17    27    28    2
    18    27    29   am
    19    96    95    1
    20    19    20    1
    21    73    71    1
    22     5     6    1
    23    71    72    1
    24    71    70    1
    25    69    68    2
    26    95    94    1
    27    20    21    1
    28    77    76    2
    29    76    75    1
    30    68    67    1
    31     6     8   ar
    32     6     7   ar
    33    70    67    1
    34     8    10   ar
    35     7     9   ar
    36    94    93    1
    37    67    66    1
    38    75    74    1
    39    75    78    1
    40    79    78    1
    41    79    80    1
    42    79    81    1
    43    10    11   ar
    44    93    90    1
    45     9    11   ar
    46    11    12    1
    47    82    83    1
    48    66    63   am
    49    88    86    1
    50    89    90    1
    51    89    84   am
    52    64    63    2
    53    90    91    1
    54    86    83    1
    55    86    87    1
    56    63    62    1
    57    83    84    1
    58    91    92    2
    59    84    85    2
    60    55    54    2
    61    61    62    1
    62    54    53    1
    63    62    65    1
    64    40    38   ar
    65    40    39   ar
    66    56    53    1
    67    56    57    1
    68    38    36   ar
    69    53    52    1
    70    58    57    1
    71    58    59    1
    72    39    37   ar
    73   112   109    1
    74    60    59    1
    75    36    35   ar
    76   101   102    1
    77   101    98    1
    78   108   109    1
    79   108    99   am
    80    97    98    1
    81   109   110    1
    82    37    35   ar
    83   103   102   ar
    84   103   105   ar
    85    35    34    1
    86   102   104   ar
    87    98    99    1
    88   105   107   ar
    89    99   100    2
    90   104   106   ar
    91    51    49   ar
    92    51    50   ar
    93   110   111    2
    94   107   106   ar
    95    34    31    1
    96    49    47   ar
    97    50    48   ar
    98    30    31    1
    99    31    32    1
   100    47    46   ar
   101    48    46   ar
   102    32    33    2
   103    46    45    1
   104    45    42    1
   105    41    42    1
   106    42    43    1
   107    43    44    2
