@<TRIPOS>MOLECULE
tmp/1e7eA02.pdb
 111 101 0 0 0
SMALL
GASTEIGER

@<TRIPOS>ATOM
      1  N         15.9820   14.6770    7.0140 N.3   340  SER340     -0.1217
      2  CA        16.9280   13.8790    7.7810 C.3   340  SER340      0.1889
      3  C         17.6410   13.0360    6.7330 C.2   340  SER340      0.2288
      4  O         17.0370   12.6730    5.7210 O.2   340  SER340     -0.2866
      5  CB        16.1800   12.9590    8.7380 C.3   340  SER340      0.2089
      6  OG        15.1060   12.3150    8.0670 O.3   340  SER340     -0.2183
      7  N         18.3870    9.9360    6.7440 N.3   342  VAL342     -0.1231
      8  CA        17.6860    8.6730    6.5420 C.3   342  VAL342      0.1692
      9  C         16.4560    8.8410    5.6440 C.2   342  VAL342      0.2591
     10  O         16.0290    7.8930    4.9760 O.2   342  VAL342     -0.2718
     11  CB        17.2690    8.0370    7.8850 C.3   342  VAL342      0.0266
     12  CG1       18.4910    7.4930    8.5940 C.3   342  VAL342      0.0020
     13  CG2       16.5840    9.0540    8.7510 C.3   342  VAL342      0.0020
     14  N         15.8810   10.0410    5.6260 N.am  343  LEU343     -0.1980
     15  CA        14.7230   10.2950    4.7720 C.3   343  LEU343      0.1596
     16  C         15.2430   10.2970    3.3350 C.2   343  LEU343      0.2287
     17  O         14.6430    9.7080    2.4370 O.2   343  LEU343     -0.2864
     18  CB        14.0830   11.6550    5.1040 C.3   343  LEU343      0.0297
     19  CG        12.9640   12.1360    4.1610 C.3   343  LEU343      0.0022
     20  CD1       11.9970   10.9990    3.8460 C.3   343  LEU343      0.0001
     21  CD2       12.2120   13.2810    4.7940 C.3   343  LEU343      0.0001
     22  N         16.0120    7.0420    2.1580 N.3   346  ARG346     -0.1245
     23  CA        14.7430    6.3540    1.9680 C.3   346  ARG346      0.1563
     24  C         14.1960    6.6140    0.5730 C.2   346  ARG346      0.2260
     25  O         13.5450    5.7520   -0.0210 O.2   346  ARG346     -0.2867
     26  CB        13.7340    6.8430    3.0020 C.3   346  ARG346      0.0307
     27  CG        13.1270    5.7530    3.8560 C.3   346  ARG346      0.0489
     28  CD        12.3160    6.3520    5.0030 C.3   346  ARG346      0.2205
     29  NE        12.9910    6.1630    6.2850 N.pl3 346  ARG346     -0.0865
     30  CZ        12.8630    6.9690    7.3330 C.cat 346  ARG346      0.5346
     31  NH1       12.0790    8.0390    7.2630 N.pl3 346  ARG346      0.1354
     32  NH2       13.5260    6.7040    8.4510 N.pl3 346  ARG346      0.1354
     33  N          7.3440   11.4920    8.4240 N.3   382  PRO382     -0.2116
     34  CA         8.1550   12.0640    9.5080 C.3   382  PRO382      0.1372
     35  C          7.7750   13.5050    9.8460 C.2   382  PRO382      0.2244
     36  O          7.7890   13.8960   11.0100 O.2   382  PRO382     -0.2868
     37  CB         9.5930   11.9440    8.9990 C.3   382  PRO382      0.0268
     38  CG         9.4730   11.7750    7.5320 C.3   382  PRO382      0.0207
     39  CD         8.1670   11.0930    7.2690 C.3   382  PRO382      0.0892
     40  N          4.9230   13.5590   12.0210 N.3   385  LEU385     -0.1231
     41  CA         5.3370   13.0150   13.3140 C.3   385  LEU385      0.1693
     42  C          5.8800   14.1290   14.2080 C.2   385  LEU385      0.2591
     43  O          5.4840   14.2570   15.3670 O.2   385  LEU385     -0.2718
     44  CB         6.4220   11.9470   13.1260 C.3   385  LEU385      0.0284
     45  CG         6.1920   10.5290   13.6670 C.3   385  LEU385      0.0019
     46  CD1        7.3700   10.1140   14.5330 C.3   385  LEU385      0.0001
     47  CD2        4.9050   10.4720   14.4670 C.3   385  LEU385      0.0001
     48  N          6.7940   14.9210   13.6540 N.am  386  ILE386     -0.1980
     49  CA         7.4170   16.0370   14.3590 C.3   386  ILE386      0.1595
     50  C          6.3790   17.0790   14.7820 C.2   386  ILE386      0.2287
     51  O          6.3750   17.5510   15.9210 O.2   386  ILE386     -0.2864
     52  CB         8.4550   16.7370   13.4620 C.3   386  ILE386      0.0276
     53  CG1        9.6020   15.7810   13.1490 C.3   386  ILE386      0.0022
     54  CG2        8.9680   17.9970   14.1410 C.3   386  ILE386      0.0022
     55  CD1       10.3960   15.3790   14.3540 C.3   386  ILE386      0.0001
     56  N          4.1340   15.7740   17.6600 N.3   389  ASN389     -0.1240
     57  CA         4.8250   15.5900   18.9290 C.3   389  ASN389      0.1653
     58  C          5.3520   16.8680   19.5580 C.2   389  ASN389      0.2266
     59  O          5.5040   16.9480   20.7760 O.2   389  ASN389     -0.2867
     60  CB         5.9690   14.5960   18.7600 C.3   389  ASN389      0.1155
     61  CG         5.5080   13.1630   18.8980 C.2   389  ASN389      0.2627
     62  OD1        5.6630   12.5500   19.9540 O.2   389  ASN389     -0.2716
     63  ND2        4.9280   12.6210   17.8290 N.am  389  ASN389     -0.0877
     64  N         14.7920   14.5890   23.9440 N.3   431  VAL431     -0.1245
     65  CA        14.9930   14.8580   22.5300 C.3   431  VAL431      0.1561
     66  C         13.8900   15.8280   22.1260 C.2   431  VAL431      0.2260
     67  O         14.0910   16.6940   21.2820 O.2   431  VAL431     -0.2867
     68  CB        14.9050   13.5550   21.6840 C.3   431  VAL431      0.0252
     69  CG1       14.8030   13.8860   20.1990 C.3   431  VAL431      0.0019
     70  CG2       16.1340   12.6940   21.9420 C.3   431  VAL431      0.0019
     71  N         13.5050   18.0020   11.9920 N.3   444  MET444     -0.1245
     72  CA        13.7480   16.6410   11.4940 C.3   444  MET444      0.1570
     73  C         15.2040   16.1990   11.6730 C.2   444  MET444      0.2261
     74  O         15.4840   15.1330   12.2160 O.2   444  MET444     -0.2867
     75  CB        13.3680   16.5410   10.0130 C.3   444  MET444      0.0387
     76  CG        12.9440   15.1530    9.5820 C.3   444  MET444      0.0595
     77  SD        11.9910   15.1100    8.0420 S.3   444  MET444     -0.1393
     78  CE        10.8310   16.4760    8.2690 C.3   444  MET444      0.0692
     79  N         16.1100   15.6000   15.4080 N.3   447  ALA447     -0.1231
     80  CA        15.5030   14.3670   15.8790 C.3   447  ALA447      0.1694
     81  C         16.2960   13.1150   15.4930 C.2   447  ALA447      0.2591
     82  O         16.6570   12.3110   16.3550 O.2   447  ALA447     -0.2718
     83  CB        14.0760   14.2710   15.3420 C.3   447  ALA447      0.0304
     84  N         16.5640   12.9500   14.2000 N.am  448  GLU448     -0.1979
     85  CA        17.2980   11.7880   13.7070 C.3   448  GLU448      0.1602
     86  C         18.6220   11.6450   14.4350 C.2   448  GLU448      0.2287
     87  O         19.0600   10.5410   14.7610 O.2   448  GLU448     -0.2864
     88  CB        17.5350   11.9210   12.1920 C.3   448  GLU448      0.0415
     89  CG        18.9580   11.5910   11.7150 C.3   448  GLU448      0.1163
     90  CD        19.1190   11.6770   10.2020 C.2   448  GLU448      0.3649
     91  OE1       19.4280   12.7760    9.6900 O.co2 448  GLU448     -0.2457
     92  OE2       18.9400   10.6430    9.5230 O.co2 448  GLU448     -0.2457
     93  N         17.6410   10.4410   18.1430 N.3   451  LEU451     -0.1245
     94  CA        16.8820    9.2070   18.0280 C.3   451  LEU451      0.1561
     95  C         17.7660    8.0060   17.6970 C.2   451  LEU451      0.2260
     96  O         17.6320    6.9360   18.2860 O.2   451  LEU451     -0.2867
     97  CB        15.8310    9.3710   16.9400 C.3   451  LEU451      0.0270
     98  CG        14.4090    8.9030   17.2160 C.3   451  LEU451      0.0019
     99  CD1       14.1670    8.8000   18.7020 C.3   451  LEU451      0.0001
    100  CD2       13.4440    9.8820   16.5810 C.3   451  LEU451      0.0001
    101  N         13.3900    3.5070   12.8530 N.3   483  ARG483     -0.1245
    102  CA        12.3890    4.4290   13.3650 C.3   483  ARG483      0.1563
    103  C         10.9810    4.1590   12.8440 C.2   483  ARG483      0.2260
    104  O         10.0580    3.9380   13.6330 O.2   483  ARG483     -0.2867
    105  CB        12.7980    5.8660   13.0430 C.3   483  ARG483      0.0307
    106  CG        12.2220    6.9000   13.9860 C.3   483  ARG483      0.0489
    107  CD        10.8040    7.2700   13.5850 C.3   483  ARG483      0.2205
    108  NE        10.7420    7.8390   12.2430 N.pl3 483  ARG483     -0.0865
    109  CZ         9.6560    7.8310   11.4740 C.cat 483  ARG483      0.5346
    110  NH1        8.5250    7.2800   11.9040 N.pl3 483  ARG483      0.1354
    111  NH2        9.6930    8.3840   10.2680 N.pl3 483  ARG483      0.1354
@<TRIPOS>BOND
     1    25    24    2
     2    24    23    1
     3    23    22    1
     4    23    26    1
     5    17    16    2
     6    26    27    1
     7    16    15    1
     8    20    19    1
     9    27    28    1
    10    19    21    1
    11    19    18    1
    12    15    18    1
    13    15    14    1
    14    10     9    2
    15    28    29    1
    16    14     9   am
    17     9     8    1
    18     4     3    2
    19    29    30    2
    20     8     7    1
    21     8    11    1
    22     3     2    1
    23     1     2    1
    24    31    30    1
    25    39    38    1
    26    39    33    1
    27    30    32    1
    28    38    37    1
    29     2     5    1
    30    11    12    1
    31    11    13    1
    32    77    78    1
    33    77    76    1
    34     6     5    1
    35    33    34    1
    36    37    34    1
    37    34    35    1
    38    92    90   ar
    39    76    75    1
    40    91    90   ar
    41    35    36    2
    42    75    72    1
    43    90    89    1
    44   111   109    1
    45   109   110    1
    46   109   108    2
    47    72    73    1
    48    72    71    1
    49    73    74    2
    50    89    88    1
    51    40    41    1
    52    88    85    1
    53   108   107    1
    54   103   102    1
    55   103   104    2
    56   101   102    1
    57   105   102    1
    58   105   106    1
    59    44    41    1
    60    44    45    1
    61    53    52    1
    62    53    55    1
    63    41    42    1
    64    52    54    1
    65    52    49    1
    66   107   106    1
    67    48    42   am
    68    48    49    1
    69    45    47    1
    70    45    46    1
    71    85    84    1
    72    85    86    1
    73    84    81   am
    74    42    43    2
    75    49    50    1
    76    86    87    2
    77    50    51    2
    78    83    80    1
    79    79    80    1
    80    81    80    1
    81    81    82    2
    82   100    98    1
    83    97    98    1
    84    97    94    1
    85    98    99    1
    86    56    57    1
    87    95    94    1
    88    95    96    2
    89    63    61   am
    90    94    93    1
    91    60    61    1
    92    60    57    1
    93    61    62    2
    94    57    58    1
    95    58    59    2
    96    69    68    1
    97    67    66    2
    98    68    70    1
    99    68    65    1
   100    66    65    1
   101    65    64    1
