@<TRIPOS>MOLECULE
tmp/1e7eA06.pdb
 140 133 0 0 0
SMALL
GASTEIGER

@<TRIPOS>ATOM
      1  N         28.4610    4.3130   14.2530 N.3   197  LYS197     -0.1245
      2  CA        28.9730    4.4330   12.8940 C.3   197  LYS197      0.1561
      3  C         29.8380    3.2330   12.5090 C.2   197  LYS197      0.2260
      4  O         29.7180    2.6980   11.4060 O.2   197  LYS197     -0.2867
      5  CB        29.7820    5.7260   12.7420 C.3   197  LYS197      0.0271
      6  CG        28.9290    6.9420   12.3930 C.3   197  LYS197      0.0035
      7  CD        29.7780    8.1940   12.2800 C.3   197  LYS197      0.0206
      8  CE        28.9290    9.4430   12.4340 C.3   197  LYS197      0.1093
      9  NZ        29.7560   10.6810   12.3510 N.3   197  LYS197     -0.1314
     10  N         25.2640    7.3860    2.7040 N.3   212  TRP212     -0.1241
     11  CA        24.9300    8.2050    3.8410 C.3   212  TRP212      0.1605
     12  C         25.7910    9.4640    3.8070 C.2   212  TRP212      0.2264
     13  O         25.2830   10.5780    3.9250 O.2   212  TRP212     -0.2867
     14  CB        25.1820    7.4130    5.1230 C.3   212  TRP212      0.0550
     15  CG        24.9950    8.2140    6.3480 C.ar  212  TRP212      0.0003
     16  CD1       23.8070    8.5540    6.9330 C.ar  212  TRP212      0.0946
     17  CD2       26.0210    8.8500    7.1130 C.ar  212  TRP212      0.0152
     18  NE1       24.0320    9.3620    8.0230 N.ar  212  TRP212     -0.2442
     19  CE2       25.3830    9.5690    8.1500 C.ar  212  TRP212      0.0810
     20  CE3       27.4200    8.8850    7.0220 C.ar  212  TRP212      0.0012
     21  CZ2       26.0960   10.3040    9.1030 C.ar  212  TRP212      0.0191
     22  CZ3       28.1320    9.6250    7.9620 C.ar  212  TRP212      0.0001
     23  CH2       27.4660   10.3310    8.9880 C.ar  212  TRP212      0.0015
     24  N         24.6970   13.4390    3.5030 N.3   216  ARG216     -0.1231
     25  CA        25.1850   14.2140    4.6280 C.3   216  ARG216      0.1694
     26  C         26.0200   15.4110    4.1950 C.2   216  ARG216      0.2591
     27  O         25.7740   16.5390    4.6290 O.2   216  ARG216     -0.2718
     28  CB        26.0130   13.3150    5.5420 C.3   216  ARG216      0.0321
     29  CG        26.5350   14.0120    6.7720 C.3   216  ARG216      0.0489
     30  CD        26.0280   13.3310    8.0260 C.3   216  ARG216      0.2205
     31  NE        26.0050   14.2490    9.1560 N.pl3 216  ARG216     -0.0865
     32  CZ        24.9390   14.4650    9.9150 C.cat 216  ARG216      0.5346
     33  NH1       23.8040   13.8240    9.6700 N.pl3 216  ARG216      0.1354
     34  NH2       25.0040   15.3340   10.9130 N.pl3 216  ARG216      0.1354
     35  N         27.0110   15.1580    3.3440 N.am  217  LEU217     -0.1980
     36  CA        27.9000   16.2110    2.8510 C.3   217  LEU217      0.1596
     37  C         27.2290   17.1830    1.8760 C.2   217  LEU217      0.2287
     38  O         27.6230   18.3390    1.7920 O.2   217  LEU217     -0.2864
     39  CB        29.1290   15.5930    2.1820 C.3   217  LEU217      0.0297
     40  CG        30.1290   14.8650    3.0840 C.3   217  LEU217      0.0022
     41  CD1       31.3080   14.4030    2.2470 C.3   217  LEU217      0.0001
     42  CD2       30.6070   15.7760    4.1870 C.3   217  LEU217      0.0001
     43  N         25.4570   20.1180    3.8190 N.3   220  ARG220     -0.1231
     44  CA        26.4020   21.0940    4.3640 C.3   220  ARG220      0.1694
     45  C         27.1140   21.9630    3.3200 C.2   220  ARG220      0.2592
     46  O         27.2240   23.1760    3.4850 O.2   220  ARG220     -0.2718
     47  CB        27.4500   20.3880    5.2320 C.3   220  ARG220      0.0321
     48  CG        26.8560   19.5560    6.3540 C.3   220  ARG220      0.0489
     49  CD        27.3610   19.9850    7.7340 C.3   220  ARG220      0.2205
     50  NE        26.8990   19.0680    8.7780 N.pl3 220  ARG220     -0.0865
     51  CZ        27.6640   18.5980    9.7600 C.cat 220  ARG220      0.5346
     52  NH1       28.9400   18.9480    9.8430 N.pl3 220  ARG220      0.1354
     53  NH2       27.1580   17.7540   10.6460 N.pl3 220  ARG220      0.1354
     54  N         27.6170   21.3490    2.2580 N.am  221  PHE221     -0.1976
     55  CA        28.3020   22.0910    1.2070 C.3   221  PHE221      0.1639
     56  C         27.4610   21.9750   -0.0550 C.2   221  PHE221      0.2290
     57  O         27.8630   21.3200   -1.0050 O.2   221  PHE221     -0.2864
     58  CB        29.6810   21.4860    0.9510 C.3   221  PHE221      0.0560
     59  CG        30.4120   21.0830    2.2020 C.ar  221  PHE221     -0.0200
     60  CD1       30.5380   21.9690    3.2680 C.ar  221  PHE221     -0.0042
     61  CD2       31.0330   19.8390    2.2900 C.ar  221  PHE221     -0.0042
     62  CE1       31.2790   21.6250    4.4040 C.ar  221  PHE221     -0.0003
     63  CE2       31.7780   19.4820    3.4240 C.ar  221  PHE221     -0.0003
     64  CZ        31.9030   20.3780    4.4800 C.ar  221  PHE221     -0.0000
     65  N         36.6550   10.6110    3.4350 N.3   236  LEU236     -0.1245
     66  CA        35.8620   10.4870    4.6470 C.3   236  LEU236      0.1561
     67  C         35.6740    9.0360    5.0140 C.2   236  LEU236      0.2260
     68  O         35.9160    8.6460    6.1500 O.2   236  LEU236     -0.2867
     69  CB        34.4900   11.1310    4.4460 C.3   236  LEU236      0.0270
     70  CG        33.8370   11.8530    5.6250 C.3   236  LEU236      0.0019
     71  CD1       32.3500   11.5650    5.6100 C.3   236  LEU236      0.0001
     72  CD2       34.4470   11.4000    6.9320 C.3   236  LEU236      0.0001
     73  N         38.6280    7.4630    6.3340 N.3   239  VAL239     -0.1231
     74  CA        38.9090    7.9300    7.6900 C.3   239  VAL239      0.1692
     75  C         38.1720    7.1250    8.7660 C.2   239  VAL239      0.2592
     76  O         38.7720    6.7190    9.7570 O.2   239  VAL239     -0.2718
     77  CB        38.5580    9.4300    7.8290 C.3   239  VAL239      0.0266
     78  CG1       38.4040    9.8090    9.2900 C.3   239  VAL239      0.0020
     79  CG2       39.6470   10.2650    7.1780 C.3   239  VAL239      0.0020
     80  N         36.8800    6.8880    8.5710 N.am  240  HIS240     -0.1976
     81  CA        36.1110    6.1280    9.5430 C.3   240  HIS240      0.1656
     82  C         36.5890    4.6920    9.6010 C.2   240  HIS240      0.2291
     83  O         36.6180    4.0810   10.6680 O.2   240  HIS240     -0.2864
     84  CB        34.6210    6.1850    9.2060 C.3   240  HIS240      0.0771
     85  CG        33.9820    7.4770    9.6020 C.ar  240  HIS240      0.0820
     86  ND1       33.5570    7.7320   10.8880 N.ar  240  HIS240     -0.2267
     87  CD2       33.7700    8.6190    8.9030 C.ar  240  HIS240      0.1154
     88  CE1       33.1110    8.9740   10.9660 C.ar  240  HIS240      0.1986
     89  NE2       33.2310    9.5320    9.7730 N.ar  240  HIS240     -0.2212
     90  N         42.6320   12.1940    9.5740 N.3   255  ARG255     -0.1245
     91  CA        41.7340   13.2990    9.8690 C.3   255  ARG255      0.1563
     92  C         42.4480   14.6260    9.6600 C.2   255  ARG255      0.2260
     93  O         41.8520   15.5980    9.2020 O.2   255  ARG255     -0.2867
     94  CB        41.2270   13.1960   11.3110 C.3   255  ARG255      0.0307
     95  CG        40.2420   12.0610   11.5420 C.3   255  ARG255      0.0489
     96  CD        39.5330   12.2240   12.8650 C.3   255  ARG255      0.2205
     97  NE        39.3110   13.6290   13.1880 N.pl3 255  ARG255     -0.0865
     98  CZ        38.2250   14.0820   13.8010 C.cat 255  ARG255      0.5346
     99  NH1       37.2680   13.2380   14.1580 N.pl3 255  ARG255      0.1354
    100  NH2       38.0890   15.3750   14.0500 N.pl3 255  ARG255      0.1354
    101  N         42.8470   15.3060    5.6630 N.3   258  LEU258     -0.1231
    102  CA        41.5480   15.6800    5.1020 C.3   258  LEU258      0.1693
    103  C         41.0620   17.0530    5.5640 C.2   258  LEU258      0.2591
    104  O         40.3090   17.7220    4.8610 O.2   258  LEU258     -0.2718
    105  CB        40.4950   14.6280    5.4500 C.3   258  LEU258      0.0284
    106  CG        39.0510   15.0370    5.1460 C.3   258  LEU258      0.0019
    107  CD1       38.8900   15.2430    3.6490 C.3   258  LEU258      0.0001
    108  CD2       38.0850   13.9740    5.6500 C.3   258  LEU258      0.0001
    109  N         41.4870   17.4730    6.7470 N.am  259  ALA259     -0.1980
    110  CA        41.0810   18.7690    7.2660 C.3   259  ALA259      0.1597
    111  C         41.8290   19.8750    6.5270 C.2   259  ALA259      0.2287
    112  O         41.2560   20.9140    6.1990 O.2   259  ALA259     -0.2864
    113  CB        41.3680   18.8430    8.7500 C.3   259  ALA259      0.0319
    114  N         40.5460   20.1720    2.8520 N.3   262  ILE262     -0.1245
    115  CA        39.2950   20.9200    2.8790 C.3   262  ILE262      0.1561
    116  C         39.5230   22.4180    3.0200 C.2   262  ILE262      0.2260
    117  O         38.8090   23.2240    2.4210 O.2   262  ILE262     -0.2867
    118  CB        38.3900   20.4660    4.0530 C.3   262  ILE262      0.0252
    119  CG1       37.6970   19.1500    3.7040 C.3   262  ILE262      0.0019
    120  CG2       37.3390   21.5330    4.3520 C.3   262  ILE262      0.0019
    121  CD1       36.6050   18.7550    4.6850 C.3   262  ILE262      0.0001
    122  N         39.7080   19.7650   12.4050 N.3   285  SER285     -0.1217
    123  CA        38.8020   18.6870   12.0090 C.3   285  SER285      0.1889
    124  C         37.5090   18.6830   12.8080 C.2   285  SER285      0.2288
    125  O         36.4180   18.5850   12.2390 O.2   285  SER285     -0.2866
    126  CB        39.4940   17.3330   12.1470 C.3   285  SER285      0.2089
    127  OG        40.1300   17.2180   13.4010 O.3   285  SER285     -0.2183
    128  N         35.3590   21.7350   11.7430 N.3   288  ILE288     -0.1231
    129  CA        34.7720   21.4760   10.4390 C.3   288  ILE288      0.1692
    130  C         33.6200   20.4890   10.5380 C.2   288  ILE288      0.2591
    131  O         32.5590   20.6880    9.9410 O.2   288  ILE288     -0.2718
    132  CB        35.8210   20.9030    9.4790 C.3   288  ILE288      0.0266
    133  CG1       36.9250   21.9360    9.2430 C.3   288  ILE288      0.0019
    134  CG2       35.1600   20.4960    8.1710 C.3   288  ILE288      0.0020
    135  CD1       38.1550   21.3700    8.5780 C.3   288  ILE288      0.0001
    136  N         33.8410   19.4270   11.3030 N.am  289  ALA289     -0.1980
    137  CA        32.8360   18.3910   11.4840 C.3   289  ALA289      0.1597
    138  C         31.5280   18.9410   12.0290 C.2   289  ALA289      0.2287
    139  O         30.4560   18.4070   11.7510 O.2   289  ALA289     -0.2864
    140  CB        33.3700   17.3120   12.4110 C.3   289  ALA289      0.0319
@<TRIPOS>BOND
     1    57    56    2
     2    56    55    1
     3    58    55    1
     4    58    59    1
     5    55    54    1
     6    38    37    2
     7    37    36    1
     8    39    36    1
     9    39    40    1
    10    59    61   ar
    11    59    60   ar
    12    41    40    1
    13    54    45   am
    14    61    63   ar
    15   117   116    2
    16    10    11    1
    17    36    35    1
    18   114   115    1
    19   115   116    1
    20   115   118    1
    21    40    42    1
    22    60    62   ar
    23    45    46    2
    24    45    44    1
    25    35    26   am
    26    63    64   ar
    27    65    66    1
    28    24    25    1
    29   107   106    1
    30   119   118    1
    31   119   121    1
    32    12    11    1
    33    12    13    2
    34    43    44    1
    35    11    14    1
    36   118   120    1
    37    26    25    1
    38    26    27    2
    39    44    47    1
    40    62    64   ar
    41    69    66    1
    42    69    70    1
    43    25    28    1
    44    66    67    1
    45   104   103    2
    46    67    68    2
    47   102   105    1
    48   102   103    1
    49   102   101    1
    50    14    15    1
    51   106   105    1
    52   106   108    1
    53    47    48    1
    54    28    29    1
    55   103   109   am
    56    71    70    1
    57    70    72    1
    58   112   111    2
    59    73    74    1
    60    15    16   ar
    61    15    17   ar
    62    48    49    1
    63   111   110    1
    64   109   110    1
    65    29    30    1
    66    16    18   ar
    67    20    17   ar
    68    20    22   ar
    69    17    19   ar
    70    79    77    1
    71   110   113    1
    72    74    77    1
    73    74    75    1
    74    49    50    1
    75    77    78    1
    76    22    23   ar
    77    18    19   ar
    78    30    31    1
    79    19    21   ar
    80   134   132    1
    81    80    75   am
    82    80    81    1
    83   135   133    1
    84    75    76    2
    85    50    51    2
    86    87    85   ar
    87    87    89   ar
    88    23    21   ar
    89    31    32    2
    90    93    92    2
    91    84    81    1
    92    84    85    1
    93   133   132    1
    94   132   129    1
    95    81    82    1
    96    90    91    1
    97    82    83    2
    98    85    86   ar
    99    92    91    1
   100    33    32    1
   101    51    52    1
   102    51    53    1
   103    89    88   ar
   104    91    94    1
   105    32    34    1
   106   131   130    2
   107   129   130    1
   108   129   128    1
   109   130   136   am
   110    86    88   ar
   111   136   137    1
   112    94    95    1
   113     4     3    2
   114   137   138    1
   115   137   140    1
   116    95    96    1
   117   139   138    2
   118   123   126    1
   119   123   122    1
   120   123   124    1
   121   126   127    1
   122   125   124    2
   123     7     6    1
   124     7     8    1
   125     9     8    1
   126     6     5    1
   127     3     2    1
   128     5     2    1
   129    96    97    1
   130     2     1    1
   131    97    98    2
   132    98   100    1
   133    98    99    1
