@<TRIPOS>MOLECULE
tmp/1e7eA00.pdb
 128 122 0 0 0
SMALL
GASTEIGER

@<TRIPOS>ATOM
      1  N         31.2850    5.0870   37.8940 N.3   113  LEU113     -0.1231
      2  CA        31.8370    6.3180   38.4450 C.3   113  LEU113      0.1693
      3  C         30.7480    7.1050   39.1740 C.2   113  LEU113      0.2592
      4  O         29.7270    7.4770   38.5750 O.2   113  LEU113     -0.2718
      5  CB        32.4360    7.1680   37.3230 C.3   113  LEU113      0.0284
      6  CG        33.8810    7.6420   37.4790 C.3   113  LEU113      0.0019
      7  CD1       34.8130    6.4460   37.5080 C.3   113  LEU113      0.0001
      8  CD2       34.2360    8.5760   36.3290 C.3   113  LEU113      0.0001
      9  N         30.9680    7.3490   40.4670 N.am  114  VAL114     -0.1966
     10  CA        30.0050    8.0870   41.2860 C.3   114  VAL114      0.1727
     11  C         30.3820    9.5630   41.4060 C.2   114  VAL114      0.2616
     12  O         31.5410    9.9050   41.6460 O.2   114  VAL114     -0.2715
     13  CB        29.8670    7.4700   42.7160 C.3   114  VAL114      0.0290
     14  CG1       28.8200    6.3550   42.7090 C.3   114  VAL114      0.0023
     15  CG2       31.2040    6.9240   43.1910 C.3   114  VAL114      0.0023
     16  N         29.3830   10.4230   41.2250 N.am  115  ARG115     -0.1977
     17  CA        29.5530   11.8730   41.2850 C.3   115  ARG115      0.1597
     18  C         29.5700   12.3960   42.7240 C.2   115  ARG115      0.2287
     19  O         28.5570   12.3220   43.4270 O.2   115  ARG115     -0.2864
     20  CB        28.4120   12.5520   40.5100 C.3   115  ARG115      0.0334
     21  CG        28.5730   14.0520   40.3010 C.3   115  ARG115      0.0492
     22  CD        27.3210   14.6710   39.6770 C.3   115  ARG115      0.2205
     23  NE        27.1800   14.3230   38.2650 N.pl3 115  ARG115     -0.0865
     24  CZ        26.1940   14.7460   37.4780 C.cat 115  ARG115      0.5346
     25  NH1       25.2510   15.5400   37.9620 N.pl3 115  ARG115      0.1354
     26  NH2       26.1470   14.3660   36.2070 N.pl3 115  ARG115      0.1354
     27  N         33.8830   18.4530   45.3120 N.3   121  MET121     -0.1245
     28  CA        34.5030   18.6290   43.9970 C.3   121  MET121      0.1570
     29  C         35.2050   19.9710   43.8790 C.2   121  MET121      0.2261
     30  O         36.3940   20.0370   43.5770 O.2   121  MET121     -0.2867
     31  CB        33.4430   18.5230   42.8950 C.3   121  MET121      0.0387
     32  CG        33.2900   17.1250   42.2950 C.3   121  MET121      0.0595
     33  SD        31.8380   16.9530   41.2300 S.3   121  MET121     -0.1393
     34  CE        32.4710   15.7690   40.0340 C.3   121  MET121      0.0692
     35  N         43.3850   16.6580   39.8560 N.3   132  PHE132     -0.1227
     36  CA        41.9500   16.4240   39.9920 C.3   132  PHE132      0.1736
     37  C         41.3640   16.1760   38.6030 C.2   132  PHE132      0.2595
     38  O         40.5700   15.2560   38.3930 O.2   132  PHE132     -0.2718
     39  CB        41.2490   17.6320   40.6340 C.3   132  PHE132      0.0547
     40  CG        39.7370   17.5650   40.5680 C.ar  132  PHE132     -0.0202
     41  CD1       39.0290   16.6770   41.3750 C.ar  132  PHE132     -0.0042
     42  CD2       39.0280   18.3650   39.6760 C.ar  132  PHE132     -0.0042
     43  CE1       37.6310   16.5840   41.2910 C.ar  132  PHE132     -0.0003
     44  CE2       37.6330   18.2830   39.5820 C.ar  132  PHE132     -0.0003
     45  CZ        36.9310   17.3900   40.3900 C.ar  132  PHE132     -0.0000
     46  N         41.7630   17.0080   37.6510 N.am  133  LEU133     -0.1980
     47  CA        41.2840   16.8750   36.2860 C.3   133  LEU133      0.1596
     48  C         41.9480   15.6870   35.5850 C.2   133  LEU133      0.2287
     49  O         41.2820   14.8960   34.9210 O.2   133  LEU133     -0.2864
     50  CB        41.5580   18.1680   35.5230 C.3   133  LEU133      0.0297
     51  CG        40.5830   19.3010   35.8540 C.3   133  LEU133      0.0022
     52  CD1       41.2060   20.6380   35.4950 C.3   133  LEU133      0.0001
     53  CD2       39.2770   19.0950   35.0940 C.3   133  LEU133      0.0001
     54  N         40.4280   12.3890   36.6480 N.3   136  TYR136     -0.1227
     55  CA        39.0980   12.1340   36.1210 C.3   136  TYR136      0.1736
     56  C         39.1480   11.8340   34.6370 C.2   136  TYR136      0.2595
     57  O         38.2790   11.1460   34.0970 O.2   136  TYR136     -0.2718
     58  CB        38.1930   13.3330   36.3710 C.3   136  TYR136      0.0548
     59  CG        37.0380   13.0140   37.2860 C.ar  136  TYR136     -0.0200
     60  CD1       36.0120   12.1630   36.8740 C.ar  136  TYR136     -0.0009
     61  CD2       36.9790   13.5500   38.5770 C.ar  136  TYR136     -0.0009
     62  CE1       34.9540   11.8530   37.7230 C.ar  136  TYR136      0.0417
     63  CE2       35.9270   13.2480   39.4370 C.ar  136  TYR136      0.0417
     64  CZ        34.9200   12.4000   39.0040 C.ar  136  TYR136      0.1957
     65  OH        33.8800   12.1020   39.8520 O.3   136  TYR136     -0.2866
     66  N         40.1690   12.3750   33.9820 N.am  137  LEU137     -0.1980
     67  CA        40.3670   12.1650   32.5570 C.3   137  LEU137      0.1596
     68  C         40.7420   10.7040   32.3770 C.2   137  LEU137      0.2287
     69  O         40.2460   10.0240   31.4770 O.2   137  LEU137     -0.2864
     70  CB        41.4940   13.0630   32.0450 C.3   137  LEU137      0.0297
     71  CG        41.6360   13.1450   30.5270 C.3   137  LEU137      0.0022
     72  CD1       40.4090   13.8100   29.9170 C.3   137  LEU137      0.0001
     73  CD2       42.9070   13.9090   30.1980 C.3   137  LEU137      0.0001
     74  N         37.6440    8.3890   32.7350 N.3   140  ILE140     -0.1245
     75  CA        36.7820    8.3660   31.5520 C.3   140  ILE140      0.1561
     76  C         37.4430    7.5850   30.4100 C.2   140  ILE140      0.2260
     77  O         36.8200    6.7410   29.7720 O.2   140  ILE140     -0.2867
     78  CB        36.5180    9.7930   31.0230 C.3   140  ILE140      0.0252
     79  CG1       36.2130   10.7490   32.1800 C.3   140  ILE140      0.0019
     80  CG2       35.3980    9.7680   29.9990 C.3   140  ILE140      0.0019
     81  CD1       35.2670   10.2040   33.2070 C.3   140  ILE140      0.0001
     82  N         37.0790   17.4630   28.1290 N.3   156  ALA156     -0.1245
     83  CA        37.8360   17.7610   29.3300 C.3   156  ALA156      0.1562
     84  C         37.8320   19.2540   29.5700 C.2   156  ALA156      0.2260
     85  O         37.4690   19.7200   30.6500 O.2   156  ALA156     -0.2867
     86  CB        39.2660   17.2620   29.1820 C.3   156  ALA156      0.0290
     87  N         34.7730   20.6840   30.6790 N.3   159  TYR159     -0.1241
     88  CA        34.5090   20.3460   32.0600 C.3   159  TYR159      0.1605
     89  C         35.2590   21.3610   32.9150 C.2   159  TYR159      0.2264
     90  O         34.6800   21.9770   33.8090 O.2   159  TYR159     -0.2867
     91  CB        34.9900   18.9310   32.3560 C.3   159  TYR159      0.0534
     92  CG        33.8980   17.9140   32.1700 C.ar  159  TYR159     -0.0201
     93  CD1       32.7730   17.9050   33.0000 C.ar  159  TYR159     -0.0009
     94  CD2       33.9710   16.9660   31.1540 C.ar  159  TYR159     -0.0009
     95  CE1       31.7490   16.9760   32.8180 C.ar  159  TYR159      0.0417
     96  CE2       32.9490   16.0330   30.9640 C.ar  159  TYR159      0.0417
     97  CZ        31.8440   16.0450   31.7980 C.ar  159  TYR159      0.1957
     98  OH        30.8440   15.1270   31.6030 O.3   159  TYR159     -0.2866
     99  N         33.5210   24.0850   36.1950 N.3   163  PHE163     -0.1241
    100  CA        34.0080   24.2120   37.5610 C.3   163  PHE163      0.1605
    101  C         34.5780   25.5940   37.8150 C.2   163  PHE163      0.2264
    102  O         34.4250   26.1590   38.8960 O.2   163  PHE163     -0.2867
    103  CB        35.0720   23.1500   37.8350 C.3   163  PHE163      0.0534
    104  CG        34.5350   21.7520   37.8080 C.ar  163  PHE163     -0.0203
    105  CD1       33.9070   21.2140   38.9240 C.ar  163  PHE163     -0.0042
    106  CD2       34.6240   20.9810   36.6560 C.ar  163  PHE163     -0.0042
    107  CE1       33.3720   19.9250   38.8890 C.ar  163  PHE163     -0.0003
    108  CE2       34.0910   19.6900   36.6120 C.ar  163  PHE163     -0.0003
    109  CZ        33.4650   19.1630   37.7290 C.ar  163  PHE163     -0.0000
    110  N         26.9750   19.7200   34.3420 N.3   180  LEU180     -0.1245
    111  CA        27.5330   18.3770   34.3340 C.3   180  LEU180      0.1561
    112  C         26.5350   17.4070   33.7160 C.2   180  LEU180      0.2260
    113  O         26.9130   16.4570   33.0350 O.2   180  LEU180     -0.2867
    114  CB        27.8440   17.9270   35.7580 C.3   180  LEU180      0.0270
    115  CG        29.0660   18.5080   36.4600 C.3   180  LEU180      0.0019
    116  CD1       29.2060   17.8240   37.8100 C.3   180  LEU180      0.0001
    117  CD2       30.3180   18.2970   35.6200 C.3   180  LEU180      0.0001
    118  N         27.3060   15.4070   30.3050 N.3   184  ARG184     -0.1245
    119  CA        27.1370   13.9650   30.3830 C.3   184  ARG184      0.1563
    120  C         26.3260   13.3990   29.2230 C.2   184  ARG184      0.2260
    121  O         26.7230   12.4210   28.5960 O.2   184  ARG184     -0.2867
    122  CB        26.4690   13.5840   31.7090 C.3   184  ARG184      0.0307
    123  CG        26.4440   12.1320   31.9900 C.3   184  ARG184      0.0489
    124  CD        25.9920   11.8280   33.4160 C.3   184  ARG184      0.2205
    125  NE        24.5360   12.0070   33.4230 N.pl3 184  ARG184     -0.0865
    126  CZ        23.6690   11.2560   34.1290 C.cat 184  ARG184      0.5346
    127  NH1       24.1170   10.2040   34.7760 N.pl3 184  ARG184      0.1354
    128  NH2       22.3700   11.5220   34.1060 N.pl3 184  ARG184      0.1354
@<TRIPOS>BOND
     1    82    83    1
     2   121   120    2
     3    86    83    1
     4   120   119    1
     5    83    84    1
     6    84    85    2
     7    77    76    2
     8    72    71    1
     9    80    78    1
    10    73    71    1
    11   118   119    1
    12   119   122    1
    13    76    75    1
    14    71    70    1
    15    87    88    1
    16    96    94   ar
    17    96    97   ar
    18    78    75    1
    19    78    79    1
    20    94    92   ar
    21    69    68    2
    22    75    74    1
    23    98    97    1
    24   122   123    1
    25    97    95   ar
    26   123   124    1
    27    70    67    1
    28    88    91    1
    29    88    89    1
    30    92    91    1
    31    92    93   ar
    32    79    81    1
    33    68    67    1
    34    67    66    1
    35    95    93   ar
    36    89    90    2
    37   113   112    2
    38   124   125    1
    39   125   126    2
    40   112   111    1
    41    66    56   am
    42    57    56    2
    43   128   126    1
    44   126   127    1
    45   111   110    1
    46   111   114    1
    47    56    55    1
    48    49    48    2
    49    53    51    1
    50    52    51    1
    51    50    51    1
    52    50    47    1
    53    48    47    1
    54   117   115    1
    55   114   115    1
    56    55    58    1
    57    55    54    1
    58    99   100    1
    59    26    24    1
    60    47    46    1
    61     8     6    1
    62    58    59    1
    63   115   116    1
    64   108   106   ar
    65   108   109   ar
    66   106   104   ar
    67    60    59   ar
    68    60    62   ar
    69    59    61   ar
    70     5     6    1
    71     5     2    1
    72    24    25    1
    73    24    23    2
    74     6     7    1
    75   100   101    1
    76   100   103    1
    77    46    37   am
    78    62    64   ar
    79   109   107   ar
    80   104   103    1
    81   104   105   ar
    82   101   102    2
    83     1     2    1
    84    23    22    1
    85    38    37    2
    86     2     3    1
    87     4     3    2
    88    61    63   ar
    89    37    36    1
    90   107   105   ar
    91    64    63   ar
    92    64    65    1
    93     3     9   am
    94    44    42   ar
    95    44    45   ar
    96    42    40   ar
    97    22    21    1
    98    35    36    1
    99    36    39    1
   100    34    33    1
   101    21    20    1
   102    45    43   ar
   103     9    10    1
   104    20    17    1
   105    40    39    1
   106    40    41   ar
   107    16    17    1
   108    16    11   am
   109    33    32    1
   110    17    18    1
   111    10    11    1
   112    10    13    1
   113    43    41   ar
   114    11    12    2
   115    32    31    1
   116    14    13    1
   117    13    15    1
   118    18    19    2
   119    31    28    1
   120    30    29    2
   121    29    28    1
   122    28    27    1
