@<TRIPOS>MOLECULE
tmp/1e7eA05.pdb
 100 92 0 0 0
SMALL
GASTEIGER

@<TRIPOS>ATOM
      1  N         26.4850   -3.1110    7.4210 N.3   204  PHE204     -0.1241
      2  CA        25.9080   -2.8260    6.1140 C.3   204  PHE204      0.1605
      3  C         26.8590   -2.5940    4.9570 C.2   204  PHE204      0.2264
      4  O         26.4440   -2.6650    3.8020 O.2   204  PHE204     -0.2867
      5  CB        24.9460   -1.6520    6.2370 C.3   204  PHE204      0.0534
      6  CG        23.8470   -1.8940    7.2230 C.ar  204  PHE204     -0.0203
      7  CD1       22.6930   -2.5690    6.8410 C.ar  204  PHE204     -0.0042
      8  CD2       23.9870   -1.4960    8.5520 C.ar  204  PHE204     -0.0042
      9  CE1       21.6920   -2.8500    7.7730 C.ar  204  PHE204     -0.0003
     10  CE2       22.9920   -1.7710    9.4910 C.ar  204  PHE204     -0.0003
     11  CZ        21.8430   -2.4500    9.1010 C.ar  204  PHE204     -0.0000
     12  N         29.1860    0.6380    0.7430 N.3   207  ARG207     -0.1231
     13  CA        28.2250    1.2830   -0.1380 C.3   207  ARG207      0.1694
     14  C         27.2500    2.1800    0.6100 C.2   207  ARG207      0.2591
     15  O         27.1240    3.3710    0.3050 O.2   207  ARG207     -0.2718
     16  CB        27.4400    0.2320   -0.9240 C.3   207  ARG207      0.0321
     17  CG        26.9400    0.7360   -2.2750 C.3   207  ARG207      0.0489
     18  CD        25.5330    0.2540   -2.5730 C.3   207  ARG207      0.2205
     19  NE        25.0180    0.8100   -3.8210 N.pl3 207  ARG207     -0.0865
     20  CZ        23.7610    0.6740   -4.2340 C.cat 207  ARG207      0.5346
     21  NH1       22.8890   -0.0050   -3.5020 N.pl3 207  ARG207      0.1354
     22  NH2       23.3730    1.2160   -5.3800 N.pl3 207  ARG207      0.1354
     23  N         26.5590    1.5870    1.5790 N.am  208  ALA208     -0.1980
     24  CA        25.5740    2.2910    2.3940 C.3   208  ALA208      0.1597
     25  C         26.1860    3.4880    3.1190 C.2   208  ALA208      0.2287
     26  O         25.5820    4.5580    3.1920 O.2   208  ALA208     -0.2864
     27  CB        24.9560    1.3270    3.4010 C.3   208  ALA208      0.0319
     28  N         26.6870    6.2160    0.7330 N.3   211  ALA211     -0.1245
     29  CA        25.4070    6.8180    0.3770 C.3   211  ALA211      0.1562
     30  C         24.9950    7.7860    1.4740 C.2   211  ALA211      0.2260
     31  O         24.4410    8.8570    1.2240 O.2   211  ALA211     -0.2867
     32  CB        24.3440    5.7430    0.2180 C.3   211  ALA211      0.0290
     33  N         22.9700    7.1860   -8.9620 N.3   325  LEU325     -0.1245
     34  CA        22.1570    7.2520   -7.7600 C.3   325  LEU325      0.1561
     35  C         22.7970    8.2390   -6.7780 C.2   325  LEU325      0.2260
     36  O         22.0980    8.9560   -6.0660 O.2   325  LEU325     -0.2867
     37  CB        22.0290    5.8610   -7.1380 C.3   325  LEU325      0.0270
     38  CG        20.9550    4.9840   -7.7970 C.3   325  LEU325      0.0019
     39  CD1       21.1240    3.5470   -7.3670 C.3   325  LEU325      0.0001
     40  CD2       19.5790    5.4840   -7.4190 C.3   325  LEU325      0.0001
     41  N         21.0690   11.6520   -4.9370 N.3   329  LEU329     -0.1245
     42  CA        21.2590   12.0360   -3.5380 C.3   329  LEU329      0.1561
     43  C         21.8440   13.4390   -3.4600 C.2   329  LEU329      0.2260
     44  O         21.2680   14.3270   -2.8440 O.2   329  LEU329     -0.2867
     45  CB        22.2180   11.0670   -2.8310 C.3   329  LEU329      0.0270
     46  CG        21.6970    9.7390   -2.2720 C.3   329  LEU329      0.0019
     47  CD1       22.7640    9.1360   -1.3750 C.3   329  LEU329      0.0001
     48  CD2       20.4040    9.9450   -1.5000 C.3   329  LEU329      0.0001
     49  N         17.9930    8.8660    2.1590 N.3   345  LEU345     -0.1245
     50  CA        18.3580    7.5090    1.7930 C.3   345  LEU345      0.1561
     51  C         17.1040    6.7040    1.4850 C.2   345  LEU345      0.2260
     52  O         17.1230    5.8040    0.6510 O.2   345  LEU345     -0.2867
     53  CB        19.1350    6.8530    2.9310 C.3   345  LEU345      0.0270
     54  CG        20.5450    7.3980    3.1700 C.3   345  LEU345      0.0019
     55  CD1       21.2410    6.5350    4.2100 C.3   345  LEU345      0.0001
     56  CD2       21.3380    7.4170    1.8650 C.3   345  LEU345      0.0001
     57  N         16.1840    7.6480   -2.1350 N.3   348  ALA348     -0.1231
     58  CA        17.1280    7.0880   -3.0870 C.3   348  ALA348      0.1694
     59  C         16.8420    5.6050   -3.3190 C.2   348  ALA348      0.2591
     60  O         16.9010    5.1320   -4.4460 O.2   348  ALA348     -0.2718
     61  CB        18.5530    7.2850   -2.5840 C.3   348  ALA348      0.0304
     62  N         16.5190    4.8780   -2.2530 N.am  349  LYS349     -0.1980
     63  CA        16.2180    3.4550   -2.3680 C.3   349  LYS349      0.1596
     64  C         14.8500    3.2300   -3.0160 C.2   349  LYS349      0.2287
     65  O         14.5760    2.1540   -3.5460 O.2   349  LYS349     -0.2864
     66  CB        16.2580    2.7810   -0.9900 C.3   349  LYS349      0.0298
     67  CG        17.6090    2.7450   -0.3660 C.3   349  LYS349      0.0038
     68  CD        18.5290    1.7440   -0.9930 C.3   349  LYS349      0.0206
     69  CE        19.9130    1.7280   -0.2980 C.3   349  LYS349      0.1093
     70  NZ        20.7970    2.8370   -0.6830 N.3   349  LYS349     -0.1314
     71  N         15.7380    4.0040   -6.7290 N.3   352  GLU352     -0.1245
     72  CA        16.5160    2.8770   -7.2350 C.3   352  GLU352      0.1567
     73  C         15.6240    1.6930   -7.5700 C.2   352  GLU352      0.2260
     74  O         15.8660    0.9780   -8.5400 O.2   352  GLU352     -0.2867
     75  CB        17.5560    2.4430   -6.1980 C.3   352  GLU352      0.0388
     76  CG        18.3350    1.1850   -6.5790 C.3   352  GLU352      0.1160
     77  CD        19.1040    0.5740   -5.4100 C.2   352  GLU352      0.3649
     78  OE1       18.5080    0.4110   -4.3220 O.co2 352  GLU352     -0.2457
     79  OE2       20.3030    0.2520   -5.5800 O.co2 352  GLU352     -0.2457
     80  N         16.2430   -2.7870    8.5990 N.3   478  SER478     -0.1202
     81  CA        17.0090   -1.7360    7.9560 C.3   478  SER478      0.2020
     82  C         17.3130   -0.5510    8.8900 C.2   478  SER478      0.2619
     83  O         16.4290   -0.0650    9.5940 O.2   478  SER478     -0.2717
     84  CB        16.2480   -1.2370    6.7330 C.3   478  SER478      0.2103
     85  OG        15.8820    0.1080    6.9430 O.3   478  SER478     -0.2182
     86  N         18.5660   -0.1030    8.9050 N.am  479  LEU479     -0.1965
     87  CA        18.9380    1.0400    9.7310 C.3   479  LEU479      0.1728
     88  C         18.0890    2.2450    9.3150 C.2   479  LEU479      0.2616
     89  O         17.6840    3.0550   10.1470 O.2   479  LEU479     -0.2715
     90  CB        20.4160    1.4010    9.5480 C.3   479  LEU479      0.0311
     91  CG        21.4400    1.1320   10.6640 C.3   479  LEU479      0.0022
     92  CD1       22.5970    2.1030   10.5100 C.3   479  LEU479      0.0001
     93  CD2       20.8130    1.2780   12.0500 C.3   479  LEU479      0.0001
     94  N         17.8330    2.3600    8.0180 N.am  480  VAL480     -0.1977
     95  CA        17.0420    3.4580    7.4770 C.3   480  VAL480      0.1596
     96  C         15.5620    3.3180    7.8670 C.2   480  VAL480      0.2287
     97  O         14.8070    4.2980    7.8770 O.2   480  VAL480     -0.2864
     98  CB        17.2180    3.5070    5.9220 C.3   480  VAL480      0.0276
     99  CG1       16.0690    4.2530    5.2550 C.3   480  VAL480      0.0022
    100  CG2       18.5490    4.1670    5.5880 C.3   480  VAL480      0.0022
@<TRIPOS>BOND
     1    33    34    1
     2    74    73    2
     3    38    40    1
     4    38    39    1
     5    38    37    1
     6    34    37    1
     7    34    35    1
     8    73    72    1
     9    72    71    1
    10    72    75    1
    11    35    36    2
    12    76    75    1
    13    76    77    1
    14    79    77   ar
    15    77    78   ar
    16    22    20    1
    17    41    42    1
    18    60    59    2
    19    20    19    2
    20    20    21    1
    21    19    18    1
    22    65    64    2
    23    42    43    1
    24    42    45    1
    25    43    44    2
    26    59    58    1
    27    59    62   am
    28    58    61    1
    29    58    57    1
    30    64    63    1
    31    45    46    1
    32    18    17    1
    33    63    62    1
    34    63    66    1
    35    17    16    1
    36    46    48    1
    37    46    47    1
    38    68    67    1
    39    68    69    1
    40    66    67    1
    41    16    13    1
    42    70    69    1
    43    13    14    1
    44    13    12    1
    45    32    29    1
    46    15    14    2
    47    29    28    1
    48    29    30    1
    49    14    23   am
    50    52    51    2
    51    31    30    2
    52    51    50    1
    53    23    24    1
    54    50    49    1
    55    50    53    1
    56    56    54    1
    57    24    25    1
    58    24    27    1
    59    53    54    1
    60    25    26    2
    61    54    55    1
    62     4     3    2
    63     3     2    1
    64    99    98    1
    65   100    98    1
    66    98    95    1
    67     2     5    1
    68     2     1    1
    69     5     6    1
    70    84    85    1
    71    84    81    1
    72     7     6   ar
    73     7     9   ar
    74     6     8   ar
    75    95    96    1
    76    95    94    1
    77     9    11   ar
    78    96    97    2
    79    81    80    1
    80    81    82    1
    81    94    88   am
    82     8    10   ar
    83    82    86   am
    84    82    83    2
    85    86    87    1
    86    11    10   ar
    87    88    87    1
    88    88    89    2
    89    90    87    1
    90    90    91    1
    91    92    91    1
    92    91    93    1
