@<TRIPOS>MOLECULE
tmp/1e7eA01.pdb
 127 117 0 0 0
SMALL
GASTEIGER

@<TRIPOS>ATOM
      1  N         55.5880   16.4810   16.7070 N.3     8  ARG8       -0.1245
      2  CA        54.2760   16.4520   17.3610 C.3     8  ARG8        0.1563
      3  C         54.2820   17.2730   18.6460 C.2     8  ARG8        0.2260
      4  O         53.2750   17.8810   19.0150 O.2     8  ARG8       -0.2867
      5  CB        53.8800   15.0160   17.6960 C.3     8  ARG8        0.0307
      6  CG        53.8970   14.0850   16.5170 C.3     8  ARG8        0.0489
      7  CD        52.8150   14.4520   15.5300 C.3     8  ARG8        0.2205
      8  NE        52.5770   13.3630   14.5920 N.pl3   8  ARG8       -0.0865
      9  CZ        51.4920   13.2500   13.8360 C.cat   8  ARG8        0.5346
     10  NH1       50.5330   14.1660   13.9050 N.pl3   8  ARG8        0.1354
     11  NH2       51.3700   12.2170   13.0150 N.pl3   8  ARG8        0.1354
     12  N         51.7860   20.2180   18.8640 N.3    12  LEU12      -0.1245
     13  CA        50.7170   20.1210   19.8620 C.3    12  LEU12       0.1561
     14  C         50.8500   21.0610   21.0710 C.2    12  LEU12       0.2260
     15  O         49.9030   21.7710   21.4320 O.2    12  LEU12      -0.2867
     16  CB        50.6490   18.6750   20.3700 C.3    12  LEU12       0.0270
     17  CG        49.5830   17.6740   19.9120 C.3    12  LEU12       0.0019
     18  CD1       48.7260   18.2490   18.7950 C.3    12  LEU12       0.0001
     19  CD2       50.2800   16.3980   19.4740 C.3    12  LEU12       0.0001
     20  N         47.0740   14.0850   26.0990 N.3    20  LEU20      -0.1245
     21  CA        46.8120   13.0160   25.1450 C.3    20  LEU20       0.1561
     22  C         47.6430   11.7820   25.4440 C.2    20  LEU20       0.2260
     23  O         47.1470   10.6690   25.3290 O.2    20  LEU20      -0.2867
     24  CB        47.0680   13.4970   23.7200 C.3    20  LEU20       0.0270
     25  CG        45.9730   14.4070   23.1520 C.3    20  LEU20       0.0019
     26  CD1       46.5250   15.1670   21.9660 C.3    20  LEU20       0.0001
     27  CD2       44.7560   13.5930   22.7350 C.3    20  LEU20       0.0001
     28  N         56.6520    6.7380   16.1150 N.3    64  LEU64      -0.1245
     29  CA        55.8020    6.8900   17.2880 C.3    64  LEU64       0.1561
     30  C         55.2930    5.5190   17.7250 C.2    64  LEU64       0.2260
     31  O         55.3820    5.1630   18.9010 O.2    64  LEU64      -0.2867
     32  CB        54.6290    7.8330   16.9860 C.3    64  LEU64       0.0270
     33  CG        54.9870    9.3240   17.0960 C.3    64  LEU64       0.0019
     34  CD1       53.7460   10.2010   16.9320 C.3    64  LEU64       0.0001
     35  CD2       55.6590    9.5750   18.4400 C.3    64  LEU64       0.0001
     36  N         37.5780    8.8000   20.3640 N.3   148  TYR148     -0.1241
     37  CA        38.6620    9.5360   19.7100 C.3   148  TYR148      0.1605
     38  C         39.3500   10.4950   20.6890 C.2   148  TYR148      0.2264
     39  O         38.7830   11.5270   21.0550 O.2   148  TYR148     -0.2867
     40  CB        38.1180   10.3300   18.5170 C.3   148  TYR148      0.0534
     41  CG        39.2030   10.9910   17.6880 C.ar  148  TYR148     -0.0201
     42  CD1       40.3670   10.2910   17.3430 C.ar  148  TYR148     -0.0009
     43  CD2       39.0770   12.3130   17.2560 C.ar  148  TYR148     -0.0009
     44  CE1       41.3760   10.8880   16.5840 C.ar  148  TYR148      0.0417
     45  CE2       40.0860   12.9220   16.4940 C.ar  148  TYR148      0.0417
     46  CZ        41.2330   12.2010   16.1640 C.ar  148  TYR148      0.1957
     47  OH        42.2360   12.7820   15.4130 O.3   148  TYR148     -0.2866
     48  N         41.4920   13.1260   20.8650 N.3   150  PRO150     -0.2116
     49  CA        41.3180   14.5780   20.7640 C.3   150  PRO150      0.1372
     50  C         39.9230   15.0930   21.1100 C.2   150  PRO150      0.2244
     51  O         39.7760   16.2000   21.6220 O.2   150  PRO150     -0.2868
     52  CB        41.6990   14.8790   19.3160 C.3   150  PRO150      0.0268
     53  CG        42.6710   13.8020   18.9770 C.3   150  PRO150      0.0207
     54  CD        42.1150   12.5730   19.6500 C.3   150  PRO150      0.0892
     55  N         44.8540    5.0870   16.5960 N.3   248  LEU248     -0.1231
     56  CA        44.7020    6.5220   16.8120 C.3   248  LEU248      0.1693
     57  C         45.6260    7.3580   15.9500 C.2   248  LEU248      0.2591
     58  O         45.2280    8.4040   15.4370 O.2   248  LEU248     -0.2718
     59  CB        44.9420    6.8740   18.2840 C.3   248  LEU248      0.0284
     60  CG        45.1460    8.3680   18.5810 C.3   248  LEU248      0.0019
     61  CD1       43.7980    9.0770   18.6760 C.3   248  LEU248      0.0001
     62  CD2       45.9320    8.5280   19.8650 C.3   248  LEU248      0.0001
     63  N         46.8640    6.9150   15.8060 N.am  249  LEU249     -0.1980
     64  CA        47.8020    7.6610   14.9930 C.3   249  LEU249      0.1596
     65  C         47.3180    7.7140   13.5450 C.2   249  LEU249      0.2287
     66  O         47.2380    8.7920   12.9530 O.2   249  LEU249     -0.2864
     67  CB        49.1850    7.0270   15.0800 C.3   249  LEU249      0.0297
     68  CG        49.9900    7.5620   16.2620 C.3   249  LEU249      0.0022
     69  CD1       51.4100    7.0230   16.2140 C.3   249  LEU249      0.0001
     70  CD2       49.9840    9.0840   16.2160 C.3   249  LEU249      0.0001
     71  N         44.2700    9.6820   13.4890 N.3   252  ALA252     -0.1245
     72  CA        44.5530   11.0840   13.7470 C.3   252  ALA252      0.1562
     73  C         45.0510   11.8000   12.4980 C.2   252  ALA252      0.2260
     74  O         44.5610   12.8760   12.1460 O.2   252  ALA252     -0.2867
     75  CB        45.5750   11.2130   14.8710 C.3   252  ALA252      0.0290
     76  N         42.6320   12.1940    9.5740 N.3   255  ARG255     -0.1231
     77  CA        41.7340   13.2990    9.8690 C.3   255  ARG255      0.1694
     78  C         42.4480   14.6260    9.6600 C.2   255  ARG255      0.2591
     79  O         41.8520   15.5980    9.2020 O.2   255  ARG255     -0.2718
     80  CB        41.2270   13.1960   11.3110 C.3   255  ARG255      0.0321
     81  CG        40.2420   12.0610   11.5420 C.3   255  ARG255      0.0489
     82  CD        39.5330   12.2240   12.8650 C.3   255  ARG255      0.2205
     83  NE        39.3110   13.6290   13.1880 N.pl3 255  ARG255     -0.0865
     84  CZ        38.2250   14.0820   13.8010 C.cat 255  ARG255      0.5346
     85  NH1       37.2680   13.2380   14.1580 N.pl3 255  ARG255      0.1354
     86  NH2       38.0890   15.3750   14.0500 N.pl3 255  ARG255      0.1354
     87  N         43.7300   14.6630    9.9980 N.am  256  ALA256     -0.1980
     88  CA        44.5050   15.8830    9.8420 C.3   256  ALA256      0.1597
     89  C         44.5700   16.2690    8.3720 C.2   256  ALA256      0.2287
     90  O         44.1400   17.3530    7.9820 O.2   256  ALA256     -0.2864
     91  CB        45.9060   15.6830   10.3890 C.3   256  ALA256      0.0319
     92  N         41.4870   17.4730    6.7470 N.3   259  ALA259     -0.1245
     93  CA        41.0810   18.7690    7.2660 C.3   259  ALA259      0.1562
     94  C         41.8290   19.8750    6.5270 C.2   259  ALA259      0.2260
     95  O         41.2560   20.9140    6.1990 O.2   259  ALA259     -0.2867
     96  CB        41.3680   18.8430    8.7500 C.3   259  ALA259      0.0290
     97  N         45.6240   23.0930   14.6230 N.3   281  LEU281     -0.1231
     98  CA        45.5960   21.7130   14.1550 C.3   281  LEU281      0.1693
     99  C         44.6980   20.7650   14.9320 C.2   281  LEU281      0.2591
    100  O         44.0030   19.9290   14.3480 O.2   281  LEU281     -0.2718
    101  CB        47.0200   21.1610   14.1360 C.3   281  LEU281      0.0284
    102  CG        47.2540   19.8040   14.7890 C.3   281  LEU281      0.0019
    103  CD1       48.1170   18.9570   13.8710 C.3   281  LEU281      0.0001
    104  CD2       47.9220   19.9980   16.1410 C.3   281  LEU281      0.0001
    105  N         44.7160   20.8980   16.2490 N.am  282  LEU282     -0.1980
    106  CA        43.9230   20.0400   17.1120 C.3   282  LEU282      0.1596
    107  C         42.4160   20.2870   17.0790 C.2   282  LEU282      0.2287
    108  O         41.6400   19.4040   17.4310 O.2   282  LEU282     -0.2864
    109  CB        44.4240   20.1760   18.5410 C.3   282  LEU282      0.0297
    110  CG        44.1390   18.9880   19.4380 C.3   282  LEU282      0.0022
    111  CD1       45.2080   17.9330   19.2430 C.3   282  LEU282      0.0001
    112  CD2       44.1050   19.4620   20.8700 C.3   282  LEU282      0.0001
    113  N         40.7980   21.9950   14.2210 N.3   284  LYS284     -0.1231
    114  CA        40.3370   22.0750   12.8450 C.3   284  LYS284      0.1693
    115  C         39.2990   21.0320   12.4500 C.2   284  LYS284      0.2592
    116  O         38.1400   21.3770   12.1900 O.2   284  LYS284     -0.2718
    117  CB        41.5330   22.0030   11.8910 C.3   284  LYS284      0.0285
    118  CG        41.7310   23.2700   11.0630 C.3   284  LYS284      0.0035
    119  CD        42.9230   23.1520   10.1330 C.3   284  LYS284      0.0206
    120  CE        44.0500   24.0600   10.5800 C.3   284  LYS284      0.1093
    121  NZ        45.3540   23.6280   10.0090 N.3   284  LYS284     -0.1314
    122  N         39.7080   19.7650   12.4050 N.am  285  SER285     -0.1952
    123  CA        38.8020   18.6870   12.0090 C.3   285  SER285      0.1924
    124  C         37.5090   18.6830   12.8080 C.2   285  SER285      0.2314
    125  O         36.4180   18.5850   12.2390 O.2   285  SER285     -0.2863
    126  CB        39.4940   17.3330   12.1470 C.3   285  SER285      0.2116
    127  OG        40.1300   17.2180   13.4010 O.3   285  SER285     -0.2180
@<TRIPOS>BOND
     1    95    94    2
     2    94    93    1
     3    92    93    1
     4    93    96    1
     5    90    89    2
     6    89    88    1
     7    79    78    2
     8    76    77    1
     9    78    77    1
    10    78    87   am
    11    88    87    1
    12    88    91    1
    13    77    80    1
    14   121   120    1
    15   119   120    1
    16   119   118    1
    17   118   117    1
    18    80    81    1
    19    81    82    1
    20   117   114    1
    21   123   126    1
    22   123   122    1
    23   123   124    1
    24    74    73    2
    25   126   127    1
    26   116   115    2
    27   125   124    2
    28   122   115   am
    29   115   114    1
    30    73    72    1
    31   114   113    1
    32    82    83    1
    33    66    65    2
    34    11     9    1
    35    83    84    2
    36    71    72    1
    37    65    64    1
    38    72    75    1
    39    84    86    1
    40    84    85    1
    41     9    10    1
    42     9     8    2
    43   103   102    1
    44   101    98    1
    45   101   102    1
    46    98    97    1
    47    98    99    1
    48   100    99    2
    49     8     7    1
    50   102   104    1
    51    99   105   am
    52    64    67    1
    53    64    63    1
    54    67    68    1
    55    47    46    1
    56    58    57    2
    57     7     6    1
    58    63    57   am
    59    57    56    1
    60    28    29    1
    61    46    45   ar
    62    46    44   ar
    63    69    68    1
    64    70    68    1
    65   105   106    1
    66    45    43   ar
    67     6     5    1
    68    44    42   ar
    69    55    56    1
    70     1     2    1
    71    56    59    1
    72    34    33    1
    73    32    33    1
    74    32    29    1
    75   107   106    1
    76   107   108    2
    77    33    35    1
    78   106   109    1
    79    43    41   ar
    80    29    30    1
    81    42    41   ar
    82     2     5    1
    83     2     3    1
    84    41    40    1
    85    30    31    2
    86    59    60    1
    87    40    37    1
    88   109   110    1
    89    60    61    1
    90    60    62    1
    91     3     4    2
    92    18    17    1
    93    12    13    1
    94    53    52    1
    95    53    54    1
    96   111   110    1
    97    52    49    1
    98   110   112    1
    99    19    17    1
   100    54    48    1
   101    37    36    1
   102    37    38    1
   103    13    16    1
   104    13    14    1
   105    17    16    1
   106    38    39    2
   107    49    48    1
   108    49    50    1
   109    14    15    2
   110    50    51    2
   111    26    25    1
   112    27    25    1
   113    25    24    1
   114    24    21    1
   115    21    22    1
   116    21    20    1
   117    23    22    2
