@<TRIPOS>MOLECULE
tmp/1e7eA08.pdb
 137 129 0 0 0
SMALL
GASTEIGER

@<TRIPOS>ATOM
      1  N         27.3720    7.5720   19.1400 N.3   193  LYS193     -0.1245
      2  CA        27.3080    7.8200   17.7080 C.3   193  LYS193      0.1561
      3  C         28.5570    7.2680   17.0190 C.2   193  LYS193      0.2260
      4  O         28.4750    6.7810   15.8950 O.2   193  LYS193     -0.2867
      5  CB        27.1710    9.3160   17.4350 C.3   193  LYS193      0.0271
      6  CG        25.7500    9.7720   17.1980 C.3   193  LYS193      0.0035
      7  CD        25.0740    8.8570   16.1690 C.3   193  LYS193      0.0206
      8  CE        25.9690    8.6540   14.9240 C.3   193  LYS193      0.1093
      9  NZ        25.4050    7.7550   13.9230 N.3   193  LYS193     -0.1314
     10  N         28.1560    3.6290   16.9610 N.3   196  LEU196     -0.1231
     11  CA        27.0800    3.3560   16.0170 C.3   196  LEU196      0.1693
     12  C         27.5520    3.3960   14.5620 C.2   196  LEU196      0.2591
     13  O         27.0950    2.6120   13.7320 O.2   196  LEU196     -0.2718
     14  CB        25.9520    4.3700   16.2180 C.3   196  LEU196      0.0284
     15  CG        24.7590    4.2860   15.2670 C.3   196  LEU196      0.0019
     16  CD1       24.1860    2.8780   15.2830 C.3   196  LEU196      0.0001
     17  CD2       23.7040    5.3020   15.6910 C.3   196  LEU196      0.0001
     18  N         28.4610    4.3130   14.2530 N.am  197  LYS197     -0.1980
     19  CA        28.9730    4.4330   12.8940 C.3   197  LYS197      0.1596
     20  C         29.8380    3.2330   12.5090 C.2   197  LYS197      0.2287
     21  O         29.7180    2.6980   11.4060 O.2   197  LYS197     -0.2864
     22  CB        29.7820    5.7260   12.7420 C.3   197  LYS197      0.0298
     23  CG        28.9290    6.9420   12.3930 C.3   197  LYS197      0.0038
     24  CD        29.7780    8.1940   12.2800 C.3   197  LYS197      0.0206
     25  CE        28.9290    9.4430   12.4340 C.3   197  LYS197      0.1093
     26  NZ        29.7560   10.6810   12.3510 N.3   197  LYS197     -0.1314
     27  N         27.6400    0.0910   11.8430 N.3   200  SER200     -0.1217
     28  CA        26.9700    0.0830   10.5470 C.3   200  SER200      0.1889
     29  C         27.9510   -0.1300    9.3990 C.2   200  SER200      0.2288
     30  O         27.6580   -0.8480    8.4430 O.2   200  SER200     -0.2866
     31  CB        26.2270    1.4010   10.3390 C.3   200  SER200      0.2089
     32  OG        25.7190    1.8900   11.5650 O.3   200  SER200     -0.2183
     33  N         26.4850   -3.1110    7.4210 N.3   204  PHE204     -0.1241
     34  CA        25.9080   -2.8260    6.1140 C.3   204  PHE204      0.1605
     35  C         26.8590   -2.5940    4.9570 C.2   204  PHE204      0.2264
     36  O         26.4440   -2.6650    3.8020 O.2   204  PHE204     -0.2867
     37  CB        24.9460   -1.6520    6.2370 C.3   204  PHE204      0.0534
     38  CG        23.8470   -1.8940    7.2230 C.ar  204  PHE204     -0.0203
     39  CD1       22.6930   -2.5690    6.8410 C.ar  204  PHE204     -0.0042
     40  CD2       23.9870   -1.4960    8.5520 C.ar  204  PHE204     -0.0042
     41  CE1       21.6920   -2.8500    7.7730 C.ar  204  PHE204     -0.0003
     42  CE2       22.9920   -1.7710    9.4910 C.ar  204  PHE204     -0.0003
     43  CZ        21.8430   -2.4500    9.1010 C.ar  204  PHE204     -0.0000
     44  N         26.5590    1.5870    1.5790 N.3   208  ALA208     -0.1231
     45  CA        25.5740    2.2910    2.3940 C.3   208  ALA208      0.1694
     46  C         26.1860    3.4880    3.1190 C.2   208  ALA208      0.2592
     47  O         25.5820    4.5580    3.1920 O.2   208  ALA208     -0.2718
     48  CB        24.9560    1.3270    3.4010 C.3   208  ALA208      0.0304
     49  N         27.3860    3.3060    3.6550 N.am  209  PHE209     -0.1976
     50  CA        28.0480    4.3830    4.3620 C.3   209  PHE209      0.1639
     51  C         28.3520    5.5430    3.4180 C.2   209  PHE209      0.2290
     52  O         28.2350    6.7150    3.7880 O.2   209  PHE209     -0.2864
     53  CB        29.3410    3.8870    4.9910 C.3   209  PHE209      0.0560
     54  CG        30.0780    4.9510    5.7240 C.ar  209  PHE209     -0.0200
     55  CD1       29.6740    5.3370    6.9960 C.ar  209  PHE209     -0.0042
     56  CD2       31.1490    5.6040    5.1280 C.ar  209  PHE209     -0.0042
     57  CE1       30.3190    6.3610    7.6640 C.ar  209  PHE209     -0.0003
     58  CE2       31.8060    6.6340    5.7870 C.ar  209  PHE209     -0.0003
     59  CZ        31.3910    7.0150    7.0600 C.ar  209  PHE209     -0.0000
     60  N         25.2640    7.3860    2.7040 N.3   212  TRP212     -0.1241
     61  CA        24.9300    8.2050    3.8410 C.3   212  TRP212      0.1605
     62  C         25.7910    9.4640    3.8070 C.2   212  TRP212      0.2264
     63  O         25.2830   10.5780    3.9250 O.2   212  TRP212     -0.2867
     64  CB        25.1820    7.4130    5.1230 C.3   212  TRP212      0.0550
     65  CG        24.9950    8.2140    6.3480 C.ar  212  TRP212      0.0003
     66  CD1       23.8070    8.5540    6.9330 C.ar  212  TRP212      0.0946
     67  CD2       26.0210    8.8500    7.1130 C.ar  212  TRP212      0.0152
     68  NE1       24.0320    9.3620    8.0230 N.ar  212  TRP212     -0.2442
     69  CE2       25.3830    9.5690    8.1500 C.ar  212  TRP212      0.0810
     70  CE3       27.4200    8.8850    7.0220 C.ar  212  TRP212      0.0012
     71  CZ2       26.0960   10.3040    9.1030 C.ar  212  TRP212      0.0191
     72  CZ3       28.1320    9.6250    7.9620 C.ar  212  TRP212      0.0001
     73  CH2       27.4660   10.3310    8.9880 C.ar  212  TRP212      0.0015
     74  N         24.6970   13.4390    3.5030 N.3   216  ARG216     -0.1245
     75  CA        25.1850   14.2140    4.6280 C.3   216  ARG216      0.1563
     76  C         26.0200   15.4110    4.1950 C.2   216  ARG216      0.2260
     77  O         25.7740   16.5390    4.6290 O.2   216  ARG216     -0.2867
     78  CB        26.0130   13.3150    5.5420 C.3   216  ARG216      0.0307
     79  CG        26.5350   14.0120    6.7720 C.3   216  ARG216      0.0489
     80  CD        26.0280   13.3310    8.0260 C.3   216  ARG216      0.2205
     81  NE        26.0050   14.2490    9.1560 N.pl3 216  ARG216     -0.0865
     82  CZ        24.9390   14.4650    9.9150 C.cat 216  ARG216      0.5346
     83  NH1       23.8040   13.8240    9.6700 N.pl3 216  ARG216      0.1354
     84  NH2       25.0040   15.3340   10.9130 N.pl3 216  ARG216      0.1354
     85  N         18.3870    9.9360    6.7440 N.3   342  VAL342     -0.1245
     86  CA        17.6860    8.6730    6.5420 C.3   342  VAL342      0.1561
     87  C         16.4560    8.8410    5.6440 C.2   342  VAL342      0.2260
     88  O         16.0290    7.8930    4.9760 O.2   342  VAL342     -0.2867
     89  CB        17.2690    8.0370    7.8850 C.3   342  VAL342      0.0252
     90  CG1       18.4910    7.4930    8.5940 C.3   342  VAL342      0.0019
     91  CG2       16.5840    9.0540    8.7510 C.3   342  VAL342      0.0019
     92  N         17.9930    8.8660    2.1590 N.3   345  LEU345     -0.1245
     93  CA        18.3580    7.5090    1.7930 C.3   345  LEU345      0.1561
     94  C         17.1040    6.7040    1.4850 C.2   345  LEU345      0.2260
     95  O         17.1230    5.8040    0.6510 O.2   345  LEU345     -0.2867
     96  CB        19.1350    6.8530    2.9310 C.3   345  LEU345      0.0270
     97  CG        20.5450    7.3980    3.1700 C.3   345  LEU345      0.0019
     98  CD1       21.2410    6.5350    4.2100 C.3   345  LEU345      0.0001
     99  CD2       21.3380    7.4170    1.8650 C.3   345  LEU345      0.0001
    100  N         16.5640   12.9500   14.2000 N.3   448  GLU448     -0.1231
    101  CA        17.2980   11.7880   13.7070 C.3   448  GLU448      0.1699
    102  C         18.6220   11.6450   14.4350 C.2   448  GLU448      0.2592
    103  O         19.0600   10.5410   14.7610 O.2   448  GLU448     -0.2718
    104  CB        17.5350   11.9210   12.1920 C.3   448  GLU448      0.0402
    105  CG        18.9580   11.5910   11.7150 C.3   448  GLU448      0.1161
    106  CD        19.1190   11.6770   10.2020 C.2   448  GLU448      0.3649
    107  OE1       19.4280   12.7760    9.6900 O.co2 448  GLU448     -0.2457
    108  OE2       18.9400   10.6430    9.5230 O.co2 448  GLU448     -0.2457
    109  N         19.2490   12.7800   14.6890 N.am  449  ASP449     -0.1974
    110  CA        20.5320   12.8210   15.3650 C.3   449  ASP449      0.1709
    111  C         20.5000   12.1190   16.7240 C.2   449  ASP449      0.2293
    112  O         21.3420   11.2670   17.0250 O.2   449  ASP449     -0.2864
    113  CB        20.9580   14.2840   15.5470 C.3   449  ASP449      0.1436
    114  CG        22.4500   14.4950   15.3370 C.2   449  ASP449      0.3671
    115  OD1       23.2340   13.5530   15.6030 O.co2 449  ASP449     -0.2456
    116  OD2       22.8390   15.6080   14.9100 O.co2 449  ASP449     -0.2456
    117  N         18.6710    8.1960   16.7460 N.3   452  SER452     -0.1217
    118  CA        19.5660    7.1380   16.3140 C.3   452  SER452      0.1889
    119  C         20.2550    6.4060   17.4610 C.2   452  SER452      0.2288
    120  O         20.1550    5.1860   17.5640 O.2   452  SER452     -0.2866
    121  CB        20.6150    7.7120   15.3590 C.3   452  SER452      0.2089
    122  OG        21.3370    8.7620   15.9780 O.3   452  SER452     -0.2183
    123  N         18.5660   -0.1030    8.9050 N.3   479  LEU479     -0.1231
    124  CA        18.9380    1.0400    9.7310 C.3   479  LEU479      0.1693
    125  C         18.0890    2.2450    9.3150 C.2   479  LEU479      0.2591
    126  O         17.6840    3.0550   10.1470 O.2   479  LEU479     -0.2718
    127  CB        20.4160    1.4010    9.5480 C.3   479  LEU479      0.0284
    128  CG        21.4400    1.1320   10.6640 C.3   479  LEU479      0.0019
    129  CD1       22.5970    2.1030   10.5100 C.3   479  LEU479      0.0001
    130  CD2       20.8130    1.2780   12.0500 C.3   479  LEU479      0.0001
    131  N         17.8330    2.3600    8.0180 N.am  480  VAL480     -0.1980
    132  CA        17.0420    3.4580    7.4770 C.3   480  VAL480      0.1595
    133  C         15.5620    3.3180    7.8670 C.2   480  VAL480      0.2287
    134  O         14.8070    4.2980    7.8770 O.2   480  VAL480     -0.2864
    135  CB        17.2180    3.5070    5.9220 C.3   480  VAL480      0.0276
    136  CG1       16.0690    4.2530    5.2550 C.3   480  VAL480      0.0022
    137  CG2       18.5490    4.1670    5.5880 C.3   480  VAL480      0.0022
@<TRIPOS>BOND
     1    95    94    2
     2    94    93    1
     3    44    45    1
     4    93    92    1
     5    93    96    1
     6    99    97    1
     7    45    46    1
     8    45    48    1
     9    60    61    1
    10    96    97    1
    11    46    47    2
    12    46    49   am
    13    97    98    1
    14    51    52    2
    15    51    50    1
    16    74    75    1
    17    49    50    1
    18    36    35    2
    19    62    61    1
    20    62    63    2
    21    61    64    1
    22    76    75    1
    23    76    77    2
    24    50    53    1
    25    75    78    1
    26    35    34    1
    27    88    87    2
    28    53    54    1
    29    64    65    1
    30    56    54   ar
    31    56    58   ar
    32   136   135    1
    33    78    79    1
    34   137   135    1
    35    87    86    1
    36    54    55   ar
    37    58    59   ar
    38   135   132    1
    39    34    37    1
    40    34    33    1
    41    37    38    1
    42    65    66   ar
    43    65    67   ar
    44    86    85    1
    45    86    89    1
    46    79    80    1
    47    39    38   ar
    48    39    41   ar
    49    66    68   ar
    50    55    57   ar
    51    70    67   ar
    52    70    72   ar
    53    59    57   ar
    54    67    69   ar
    55    38    40   ar
    56   132   133    1
    57   132   131    1
    58    41    43   ar
    59   133   134    2
    60    89    90    1
    61    89    91    1
    62    72    73   ar
    63   131   125   am
    64    68    69   ar
    65    80    81    1
    66    69    71   ar
    67    30    29    2
    68    40    42   ar
    69   123   124    1
    70    73    71   ar
    71    43    42   ar
    72    81    82    2
    73   125   124    1
    74   125   126    2
    75    29    28    1
    76   108   106   ar
    77   127   124    1
    78   127   128    1
    79    83    82    1
    80   107   106   ar
    81    82    84    1
    82   106   105    1
    83    31    28    1
    84    31    32    1
    85   129   128    1
    86    28    27    1
    87   128   130    1
    88    21    20    2
    89   105   104    1
    90   104   101    1
    91    24    23    1
    92    24    25    1
    93    26    25    1
    94    23    22    1
    95    20    19    1
    96    22    19    1
    97    19    18    1
    98   101   100    1
    99   101   102    1
   100    13    12    2
   101     9     8    1
   102    18    12   am
   103   102   109   am
   104   102   103    2
   105    12    11    1
   106   109   110    1
   107   116   114   ar
   108     8     7    1
   109    15    16    1
   110    15    17    1
   111    15    14    1
   112   114   113    1
   113   114   115   ar
   114   121   122    1
   115   121   118    1
   116   110   113    1
   117   110   111    1
   118     4     3    2
   119    11    14    1
   120    11    10    1
   121     7     6    1
   122   118   117    1
   123   118   119    1
   124   111   112    2
   125     3     2    1
   126     6     5    1
   127     5     2    1
   128   119   120    2
   129     2     1    1
