@<TRIPOS>MOLECULE
tmp/1e7fA03.pdb
 159 146 0 0 0
SMALL
GASTEIGER

@<TRIPOS>ATOM
      1  N          4.9310   12.9690   12.3170 N.3   385  LEU385     -0.1245
      2  CA         5.3950   12.4840   13.6080 C.3   385  LEU385      0.1561
      3  C          6.0390   13.5890   14.4240 C.2   385  LEU385      0.2260
      4  O          5.8080   13.6860   15.6240 O.2   385  LEU385     -0.2867
      5  CB         6.3980   11.3470   13.4170 C.3   385  LEU385      0.0270
      6  CG         5.8470    9.9860   12.9920 C.3   385  LEU385      0.0019
      7  CD1        6.7550    8.9000   13.5360 C.3   385  LEU385      0.0001
      8  CD2        4.4210    9.8080   13.5010 C.3   385  LEU385      0.0001
      9  N          4.0360   15.3260   17.7640 N.3   389  ASN389     -0.1240
     10  CA         4.8240   15.0240   18.9650 C.3   389  ASN389      0.1653
     11  C          5.3910   16.2360   19.6730 C.2   389  ASN389      0.2266
     12  O          5.6870   16.1960   20.8660 O.2   389  ASN389     -0.2867
     13  CB         5.9700   14.1080   18.5970 C.3   389  ASN389      0.1155
     14  CG         5.6830   12.6720   18.9450 C.2   389  ASN389      0.2627
     15  OD1        5.7090   12.2940   20.1130 O.2   389  ASN389     -0.2716
     16  ND2        5.4130   11.8570   17.9340 N.am  389  ASN389     -0.0877
     17  N          2.1140    4.8750   26.0100 N.3   408  ARG408     -0.1231
     18  CA         2.0890    4.5080   24.5940 C.3   408  ARG408      0.1694
     19  C          2.9680    3.3130   24.2010 C.2   408  ARG408      0.2592
     20  O          2.5270    2.4340   23.4630 O.2   408  ARG408     -0.2718
     21  CB         2.4800    5.7290   23.7540 C.3   408  ARG408      0.0321
     22  CG         2.7670    5.4330   22.2910 C.3   408  ARG408      0.0489
     23  CD         2.3780    6.6060   21.4140 C.3   408  ARG408      0.2205
     24  NE         3.5220    7.0750   20.6510 N.pl3 408  ARG408     -0.0865
     25  CZ         4.1660    8.2070   20.9050 C.cat 408  ARG408      0.5346
     26  NH1        3.7730    8.9820   21.9030 N.pl3 408  ARG408      0.1354
     27  NH2        5.2120    8.5570   20.1700 N.pl3 408  ARG408      0.1354
     28  N          4.2030    3.2810   24.6860 N.am  409  TYR409     -0.1976
     29  CA         5.1180    2.1960   24.3570 C.3   409  TYR409      0.1639
     30  C          4.9430    0.9560   25.2250 C.2   409  TYR409      0.2290
     31  O          5.2000   -0.1600   24.7780 O.2   409  TYR409     -0.2864
     32  CB         6.5640    2.6980   24.4380 C.3   409  TYR409      0.0560
     33  CG         6.8390    3.8040   23.4490 C.ar  409  TYR409     -0.0198
     34  CD1        6.3580    3.7250   22.1370 C.ar  409  TYR409     -0.0009
     35  CD2        7.5350    4.9480   23.8250 C.ar  409  TYR409     -0.0009
     36  CE1        6.5590    4.7580   21.2250 C.ar  409  TYR409      0.0417
     37  CE2        7.7430    5.9890   22.9200 C.ar  409  TYR409      0.0417
     38  CZ         7.2520    5.8870   21.6210 C.ar  409  TYR409      0.1957
     39  OH         7.4620    6.9010   20.7130 O.3   409  TYR409     -0.2866
     40  N          2.7110   -1.2190   23.5020 N.3   412  LYS412     -0.1231
     41  CA         3.2390   -1.8210   22.2820 C.3   412  LYS412      0.1693
     42  C          4.0380   -3.0630   22.6020 C.2   412  LYS412      0.2591
     43  O          3.7900   -4.1250   22.0380 O.2   412  LYS412     -0.2718
     44  CB         4.1420   -0.8440   21.5430 C.3   412  LYS412      0.0285
     45  CG         3.5680    0.5360   21.4340 C.3   412  LYS412      0.0035
     46  CD         2.9330    0.7610   20.0820 C.3   412  LYS412      0.0206
     47  CE         3.5940    1.9340   19.3880 C.3   412  LYS412      0.1093
     48  NZ         2.8030    2.4290   18.2300 N.3   412  LYS412     -0.1314
     49  N          5.0040   -2.9190   23.5030 N.am  413  VAL413     -0.1980
     50  CA         5.8570   -4.0310   23.9120 C.3   413  VAL413      0.1595
     51  C          5.8330   -4.2270   25.4300 C.2   413  VAL413      0.2287
     52  O          6.8240   -3.9510   26.1100 O.2   413  VAL413     -0.2864
     53  CB         7.3140   -3.7970   23.4700 C.3   413  VAL413      0.0276
     54  CG1        7.4860   -4.1910   22.0180 C.3   413  VAL413      0.0022
     55  CG2        7.6790   -2.3480   23.6640 C.3   413  VAL413      0.0022
     56  N          8.6320   -5.8050   27.4680 N.3   416  VAL416     -0.1245
     57  CA         9.8310   -5.0730   27.8380 C.3   416  VAL416      0.1561
     58  C          9.9070   -4.7640   29.3270 C.2   416  VAL416      0.2260
     59  O          8.9320   -4.3340   29.9450 O.2   416  VAL416     -0.2867
     60  CB         9.9520   -3.7610   27.0270 C.3   416  VAL416      0.0252
     61  CG1       11.3000   -3.0890   27.3040 C.3   416  VAL416      0.0019
     62  CG2        9.8090   -4.0660   25.5420 C.3   416  VAL416      0.0019
     63  N         13.6400   -0.5890   31.9780 N.3   420  THR420     -0.1203
     64  CA        14.0720   -0.3280   30.6100 C.3   420  THR420      0.1994
     65  C         13.0820    0.5930   29.8980 C.2   420  THR420      0.2617
     66  O         13.4740    1.5620   29.2490 O.2   420  THR420     -0.2717
     67  CB        14.1770   -1.6380   29.8200 C.3   420  THR420      0.1784
     68  OG1       15.3530   -2.3440   30.2320 O.3   420  THR420     -0.2211
     69  CG2       14.2330   -1.3580   28.3230 C.3   420  THR420      0.0376
     70  N         11.7990    0.2790   30.0110 N.am  421  LEU421     -0.1979
     71  CA        10.7750    1.0990   29.3870 C.3   421  LEU421      0.1596
     72  C         10.8970    2.5290   29.9170 C.2   421  LEU421      0.2287
     73  O         10.8500    3.4950   29.1540 O.2   421  LEU421     -0.2864
     74  CB         9.3870    0.5350   29.6970 C.3   421  LEU421      0.0297
     75  CG         8.7240   -0.2330   28.5500 C.3   421  LEU421      0.0022
     76  CD1        7.9330   -1.4260   29.0890 C.3   421  LEU421      0.0001
     77  CD2        7.8170    0.7110   27.7790 C.3   421  LEU421      0.0001
     78  N         14.0580    4.3170   28.4720 N.3   424  VAL424     -0.1245
     79  CA        13.8340    4.6620   27.0760 C.3   424  VAL424      0.1561
     80  C         12.8380    5.7970   26.8720 C.2   424  VAL424      0.2260
     81  O         13.1020    6.7110   26.0950 O.2   424  VAL424     -0.2867
     82  CB        13.3740    3.4270   26.2620 C.3   424  VAL424      0.0252
     83  CG1       12.4280    3.8470   25.1320 C.3   424  VAL424      0.0019
     84  CG2       14.5930    2.7090   25.6960 C.3   424  VAL424      0.0019
     85  N         13.5910    9.5460   25.4730 N.3   428  LEU428     -0.1245
     86  CA        12.7900    9.9120   24.3190 C.3   428  LEU428      0.1561
     87  C         12.1410   11.2660   24.5650 C.2   428  LEU428      0.2260
     88  O         12.1010   12.1110   23.6780 O.2   428  LEU428     -0.2867
     89  CB        11.7070    8.8620   24.0610 C.3   428  LEU428      0.0270
     90  CG        11.7750    8.1900   22.6900 C.3   428  LEU428      0.0019
     91  CD1       13.1350    7.5370   22.5070 C.3   428  LEU428      0.0001
     92  CD2       10.6660    7.1690   22.5690 C.3   428  LEU428      0.0001
     93  N         17.4000   10.1650   18.2180 N.3   451  LEU451     -0.1245
     94  CA        16.7160    8.8850   18.1240 C.3   451  LEU451      0.1561
     95  C         17.7040    7.7630   17.7920 C.2   451  LEU451      0.2260
     96  O         17.6500    6.6810   18.3690 O.2   451  LEU451     -0.2867
     97  CB        15.6330    8.9580   17.0420 C.3   451  LEU451      0.0270
     98  CG        14.1870    8.6220   17.4110 C.3   451  LEU451      0.0019
     99  CD1       13.9080    9.0580   18.8420 C.3   451  LEU451      0.0001
    100  CD2       13.2350    9.3130   16.4440 C.3   451  LEU451      0.0001
    101  N         17.6690    4.5930   20.0520 N.3   455  LEU455     -0.1245
    102  CA        17.1630    3.3550   19.4790 C.3   455  LEU455      0.1561
    103  C         18.2270    2.2840   19.5210 C.2   455  LEU455      0.2260
    104  O         17.9230    1.1090   19.6970 O.2   455  LEU455     -0.2867
    105  CB        16.7240    3.5820   18.0390 C.3   455  LEU455      0.0270
    106  CG        15.2150    3.5780   17.8040 C.3   455  LEU455      0.0019
    107  CD1       14.5030    4.1260   19.0160 C.3   455  LEU455      0.0001
    108  CD2       14.8870    4.4120   16.5780 C.3   455  LEU455      0.0001
    109  N         18.6760    1.0220   23.0420 N.3   458  LEU458     -0.1245
    110  CA        17.5880    0.1140   23.3550 C.3   458  LEU458      0.1561
    111  C         17.8240   -1.2800   22.7690 C.2   458  LEU458      0.2260
    112  O         17.6110   -2.2890   23.4420 O.2   458  LEU458     -0.2867
    113  CB        16.2690    0.6950   22.8340 C.3   458  LEU458      0.0270
    114  CG        15.2030   -0.2790   22.3290 C.3   458  LEU458      0.0019
    115  CD1       14.6430   -1.0630   23.5040 C.3   458  LEU458      0.0001
    116  CD2       14.0960    0.4840   21.6180 C.3   458  LEU458      0.0001
    117  N         10.5990   -6.2230   18.7090 N.3   471  VAL471     -0.1245
    118  CA        11.6790   -5.2770   18.9420 C.3   471  VAL471      0.1561
    119  C         12.9160   -5.7840   18.2220 C.2   471  VAL471      0.2260
    120  O         13.6680   -5.0060   17.6290 O.2   471  VAL471     -0.2867
    121  CB        11.9910   -5.1290   20.4420 C.3   471  VAL471      0.0252
    122  CG1       13.3670   -4.5070   20.6330 C.3   471  VAL471      0.0019
    123  CG2       10.9340   -4.2640   21.0970 C.3   471  VAL471      0.0019
    124  N         13.7060    2.9360   12.5960 N.3   483  ARG483     -0.1245
    125  CA        12.6970    3.8060   13.1860 C.3   483  ARG483      0.1563
    126  C         11.2750    3.5950   12.6470 C.2   483  ARG483      0.2260
    127  O         10.3290    3.4300   13.4170 O.2   483  ARG483     -0.2867
    128  CB        13.1290    5.2660   13.0000 C.3   483  ARG483      0.0307
    129  CG        12.5890    6.2380   14.0320 C.3   483  ARG483      0.0489
    130  CD        11.2240    6.7630   13.6280 C.3   483  ARG483      0.2205
    131  NE        11.2450    7.3770   12.3080 N.pl3 483  ARG483     -0.0865
    132  CZ        10.2610    7.2870   11.4170 C.cat 483  ARG483      0.5346
    133  NH1        9.1530    6.6140   11.7000 N.pl3 483  ARG483      0.1354
    134  NH2       10.3840    7.8810   10.2370 N.pl3 483  ARG483      0.1354
    135  N          9.7390    0.6340   14.3660 N.3   486  PHE486     -0.1227
    136  CA         9.2930    0.8890   15.7240 C.3   486  PHE486      0.1736
    137  C          8.0450    1.7320   15.6800 C.2   486  PHE486      0.2596
    138  O          7.1030    1.4950   16.4240 O.2   486  PHE486     -0.2718
    139  CB        10.3800    1.6050   16.5050 C.3   486  PHE486      0.0547
    140  CG        11.3860    0.6770   17.1080 C.ar  486  PHE486     -0.0202
    141  CD1       11.0140   -0.2160   18.1150 C.ar  486  PHE486     -0.0042
    142  CD2       12.7010    0.6770   16.6630 C.ar  486  PHE486     -0.0042
    143  CE1       11.9400   -1.0970   18.6720 C.ar  486  PHE486     -0.0003
    144  CE2       13.6370   -0.1980   17.2110 C.ar  486  PHE486     -0.0003
    145  CZ        13.2540   -1.0870   18.2190 C.ar  486  PHE486     -0.0000
    146  N          8.0390    2.7140   14.7890 N.am  487  SER487     -0.1952
    147  CA         6.8890    3.5870   14.6400 C.3   487  SER487      0.1924
    148  C          5.6590    2.7820   14.2690 C.2   487  SER487      0.2314
    149  O          4.5460    3.1340   14.6600 O.2   487  SER487     -0.2863
    150  CB         7.1570    4.6280   13.5560 C.3   487  SER487      0.2116
    151  OG         8.1580    5.5300   13.9830 O.3   487  SER487     -0.2180
    152  N          5.0440   -0.4590   15.1090 N.3   489  LEU489     -0.1245
    153  CA         4.6160   -1.3760   16.1580 C.3   489  LEU489      0.1561
    154  C          3.2000   -1.0280   16.5990 C.2   489  LEU489      0.2260
    155  O          2.8460    0.1440   16.7260 O.2   489  LEU489     -0.2867
    156  CB         5.5610   -1.2880   17.3550 C.3   489  LEU489      0.0270
    157  CG         6.9200   -1.9500   17.1450 C.3   489  LEU489      0.0019
    158  CD1        7.7910   -1.7930   18.3830 C.3   489  LEU489      0.0001
    159  CD2        6.7010   -3.4120   16.8200 C.3   489  LEU489      0.0001
@<TRIPOS>BOND
     1   134   132    1
     2   132   133    1
     3   132   131    2
     4   131   130    1
     5     1     2    1
     6   124   125    1
     7   126   125    1
     8   126   127    2
     9     6     5    1
    10     6     8    1
    11     6     7    1
    12   128   125    1
    13   128   129    1
    14     5     2    1
    15   150   151    1
    16   150   147    1
    17     2     3    1
    18   130   129    1
    19   148   147    1
    20   148   149    2
    21   135   136    1
    22     3     4    2
    23   147   146    1
    24   146   137   am
    25   152   153    1
    26   137   136    1
    27   137   138    2
    28   136   139    1
    29   153   154    1
    30   153   156    1
    31   100    98    1
    32   139   140    1
    33   108   106    1
    34   154   155    2
    35   142   140   ar
    36   142   144   ar
    37   159   157    1
    38    97    98    1
    39    97    94    1
    40   140   141   ar
    41   157   156    1
    42   157   158    1
    43   144   145   ar
    44    98    99    1
    45   120   119    2
    46     9    10    1
    47    95    94    1
    48    95    96    2
    49   106   105    1
    50   106   107    1
    51    16    14   am
    52   105   102    1
    53   141   143   ar
    54    94    93    1
    55   145   143   ar
    56   119   118    1
    57    48    47    1
    58    13    14    1
    59    13    10    1
    60   117   118    1
    61   118   121    1
    62    14    15    2
    63    10    11    1
    64    47    46    1
    65   102   103    1
    66   102   101    1
    67   103   104    2
    68    11    12    2
    69    46    45    1
    70    27    25    1
    71   121   122    1
    72   121   123    1
    73    24    25    2
    74    24    23    1
    75    39    38    1
    76    25    26    1
    77    36    38   ar
    78    36    34   ar
    79    23    22    1
    80    45    44    1
    81    44    41    1
    82   116   114    1
    83    38    37   ar
    84    54    53    1
    85    43    42    2
    86    34    33   ar
    87    41    42    1
    88    41    40    1
    89    22    21    1
    90   114   113    1
    91   114   115    1
    92    91    90    1
    93    92    90    1
    94    42    49   am
    95    90    89    1
    96   111   110    1
    97   111   112    2
    98   113   110    1
    99    37    35   ar
   100   109   110    1
   101    33    35   ar
   102    33    32    1
   103    20    19    2
   104    53    55    1
   105    53    50    1
   106    49    50    1
   107    88    87    2
   108    21    18    1
   109    50    51    1
   110    89    86    1
   111    19    18    1
   112    19    28   am
   113    86    87    1
   114    86    85    1
   115    29    32    1
   116    29    28    1
   117    29    30    1
   118    18    17    1
   119    31    30    2
   120    83    82    1
   121    51    52    2
   122    62    60    1
   123    84    82    1
   124    81    80    2
   125    82    79    1
   126    80    79    1
   127    60    61    1
   128    60    57    1
   129    79    78    1
   130    56    57    1
   131    77    75    1
   132    57    58    1
   133    69    67    1
   134    75    76    1
   135    75    74    1
   136    73    72    2
   137    66    65    2
   138    58    59    2
   139    71    74    1
   140    71    72    1
   141    71    70    1
   142    67    68    1
   143    67    64    1
   144    65    70   am
   145    65    64    1
   146    64    63    1
