@<TRIPOS>MOLECULE
tmp/1e7fA05.pdb
 109 98 0 0 0
SMALL
GASTEIGER

@<TRIPOS>ATOM
      1  N         29.4190    0.4860    1.1820 N.3   207  ARG207     -0.1231
      2  CA        28.4440    1.1250    0.3070 C.3   207  ARG207      0.1694
      3  C         27.3830    1.9650    1.0030 C.2   207  ARG207      0.2591
      4  O         27.1940    3.1370    0.6670 O.2   207  ARG207     -0.2718
      5  CB        27.7540    0.0860   -0.5730 C.3   207  ARG207      0.0321
      6  CG        27.1580    0.6870   -1.8460 C.3   207  ARG207      0.0489
      7  CD        25.9600   -0.1060   -2.3310 C.3   207  ARG207      0.2205
      8  NE        25.3270    0.4810   -3.5090 N.pl3 207  ARG207     -0.0865
      9  CZ        24.0120    0.5190   -3.7030 C.cat 207  ARG207      0.5346
     10  NH1       23.1860    0.0050   -2.7970 N.pl3 207  ARG207      0.1354
     11  NH2       23.5160    1.0640   -4.8080 N.pl3 207  ARG207      0.1354
     12  N         26.6730    1.3560    1.9490 N.am  208  ALA208     -0.1980
     13  CA        25.6310    2.0540    2.6960 C.3   208  ALA208      0.1597
     14  C         26.2710    3.1520    3.5490 C.2   208  ALA208      0.2287
     15  O         25.6720    4.1970    3.7940 O.2   208  ALA208     -0.2864
     16  CB        24.8800    1.0770    3.5730 C.3   208  ALA208      0.0319
     17  N         28.8700    4.7630    2.6220 N.3   210  LYS210     -0.1231
     18  CA        29.1740    5.7640    1.5980 C.3   210  LYS210      0.1693
     19  C         27.9470    6.5620    1.1960 C.2   210  LYS210      0.2591
     20  O         28.0270    7.7710    0.9890 O.2   210  LYS210     -0.2718
     21  CB        29.7550    5.0870    0.3530 C.3   210  LYS210      0.0285
     22  CG        31.2340    5.3510    0.1450 C.3   210  LYS210      0.0035
     23  CD        31.9320    4.1330   -0.4210 C.3   210  LYS210      0.0206
     24  CE        33.4390    4.3050   -0.3640 C.3   210  LYS210      0.1093
     25  NZ        34.1290    3.3480   -1.2690 N.3   210  LYS210     -0.1314
     26  N         26.8150    5.8760    1.0760 N.am  211  ALA211     -0.1980
     27  CA        25.5630    6.5180    0.6920 C.3   211  ALA211      0.1597
     28  C         25.0890    7.4580    1.7900 C.2   211  ALA211      0.2287
     29  O         24.4140    8.4560    1.5380 O.2   211  ALA211     -0.2864
     30  CB        24.5000    5.4650    0.4170 C.3   211  ALA211      0.0319
     31  N         27.4410   10.6700    1.6750 N.3   214  VAL214     -0.1245
     32  CA        27.2330   11.5270    0.5140 C.3   214  VAL214      0.1561
     33  C         26.0830   12.4630    0.8040 C.2   214  VAL214      0.2260
     34  O         26.1650   13.6660    0.5520 O.2   214  VAL214     -0.2867
     35  CB        26.9140   10.6990   -0.7610 C.3   214  VAL214      0.0252
     36  CG1       26.1930   11.5570   -1.7920 C.3   214  VAL214      0.0019
     37  CG2       28.1980   10.1590   -1.3450 C.3   214  VAL214      0.0019
     38  N         25.8660    3.2950   -9.3880 N.3   322  ASP322     -0.1239
     39  CA        26.1310    3.9830   -8.1420 C.3   322  ASP322      0.1674
     40  C         26.5000    5.4450   -8.2790 C.2   322  ASP322      0.2266
     41  O         26.0620    6.2630   -7.4740 O.2   322  ASP322     -0.2867
     42  CB        27.2030    3.2410   -7.3580 C.3   322  ASP322      0.1410
     43  CG        26.6290    2.0890   -6.5600 C.2   322  ASP322      0.3668
     44  OD1       25.4520    1.7400   -6.7900 O.co2 322  ASP322     -0.2456
     45  OD2       27.3490    1.5340   -5.7030 O.co2 322  ASP322     -0.2456
     46  N         23.1800    7.2360   -8.9600 N.3   325  LEU325     -0.1231
     47  CA        22.3620    7.2710   -7.7540 C.3   325  LEU325      0.1693
     48  C         23.0610    8.2380   -6.7960 C.2   325  LEU325      0.2592
     49  O         22.4340    9.1440   -6.2500 O.2   325  LEU325     -0.2718
     50  CB        22.2520    5.8720   -7.1260 C.3   325  LEU325      0.0284
     51  CG        21.3000    4.8470   -7.7720 C.3   325  LEU325      0.0019
     52  CD1       21.5880    3.4720   -7.1980 C.3   325  LEU325      0.0001
     53  CD2       19.8350    5.2200   -7.5390 C.3   325  LEU325      0.0001
     54  N         24.3660    8.0550   -6.6170 N.am  326  GLY326     -0.1957
     55  CA        25.1220    8.9330   -5.7430 C.3   326  GLY326      0.1869
     56  C         24.8970   10.3800   -6.1370 C.2   326  GLY326      0.2309
     57  O         24.9230   11.2780   -5.2950 O.2   326  GLY326     -0.2863
     58  N         21.5080   11.4320   -4.9150 N.3   329  LEU329     -0.1245
     59  CA        21.6150   11.7210   -3.4920 C.3   329  LEU329      0.1561
     60  C         22.1810   13.1160   -3.2910 C.2   329  LEU329      0.2260
     61  O         21.5190   13.9870   -2.7440 O.2   329  LEU329     -0.2867
     62  CB        22.5310   10.7040   -2.8080 C.3   329  LEU329      0.0270
     63  CG        21.8920    9.5970   -1.9720 C.3   329  LEU329      0.0019
     64  CD1       22.7660    9.3790   -0.7620 C.3   329  LEU329      0.0001
     65  CD2       20.4640    9.9540   -1.5580 C.3   329  LEU329      0.0001
     66  N         18.2200    8.6490    2.1220 N.3   345  LEU345     -0.1245
     67  CA        18.5870    7.3000    1.7040 C.3   345  LEU345      0.1561
     68  C         17.3190    6.5260    1.3610 C.2   345  LEU345      0.2260
     69  O         17.3060    5.7050    0.4500 O.2   345  LEU345     -0.2867
     70  CB        19.3270    6.5810    2.8300 C.3   345  LEU345      0.0270
     71  CG        20.6160    7.2260    3.3350 C.3   345  LEU345      0.0019
     72  CD1       21.0730    6.4740    4.5770 C.3   345  LEU345      0.0001
     73  CD2       21.6990    7.2040    2.2570 C.3   345  LEU345      0.0001
     74  N         16.4010    7.5750   -2.1910 N.3   348  ALA348     -0.1231
     75  CA        17.3150    7.0820   -3.2100 C.3   348  ALA348      0.1694
     76  C         17.0160    5.6120   -3.4740 C.2   348  ALA348      0.2591
     77  O         17.0060    5.1750   -4.6230 O.2   348  ALA348     -0.2718
     78  CB        18.7600    7.2550   -2.7560 C.3   348  ALA348      0.0304
     79  N         16.7700    4.8530   -2.4080 N.am  349  LYS349     -0.1980
     80  CA        16.4580    3.4330   -2.5340 C.3   349  LYS349      0.1596
     81  C         15.1950    3.2920   -3.3740 C.2   349  LYS349      0.2287
     82  O         15.1230    2.4440   -4.2630 O.2   349  LYS349     -0.2864
     83  CB        16.2340    2.8030   -1.1530 C.3   349  LYS349      0.0298
     84  CG        16.3670    1.2830   -1.1340 C.3   349  LYS349      0.0038
     85  CD        15.5160    0.7060    0.0200 C.3   349  LYS349      0.0206
     86  CE        15.9300    1.2900    1.3550 C.3   349  LYS349      0.1093
     87  NZ        15.1600    2.5360    1.6600 N.3   349  LYS349     -0.1314
     88  N         16.1250    4.1170   -6.8870 N.3   352  GLU352     -0.1245
     89  CA        16.8530    2.9570   -7.3920 C.3   352  GLU352      0.1567
     90  C         15.8950    1.8200   -7.7480 C.2   352  GLU352      0.2260
     91  O         15.9100    1.3150   -8.8630 O.2   352  GLU352     -0.2867
     92  CB        17.8650    2.4910   -6.3360 C.3   352  GLU352      0.0388
     93  CG        18.0570    0.9870   -6.2210 C.3   352  GLU352      0.1160
     94  CD        19.1400    0.6170   -5.2170 C.2   352  GLU352      0.3649
     95  OE1       18.8760    0.6990   -3.9960 O.co2 352  GLU352     -0.2457
     96  OE2       20.2570    0.2460   -5.6470 O.co2 352  GLU352     -0.2457
     97  N         17.4430   -2.8400    8.4760 N.3   478  SER478     -0.1217
     98  CA        18.4100   -1.8520    8.0020 C.3   478  SER478      0.1889
     99  C         18.3570   -0.5800    8.8470 C.2   478  SER478      0.2288
    100  O         17.2770   -0.1120    9.2130 O.2   478  SER478     -0.2866
    101  CB        18.1420   -1.5040    6.5330 C.3   478  SER478      0.2089
    102  OG        16.7970   -1.7720    6.1840 O.3   478  SER478     -0.2183
    103  N         18.0170    1.9540    8.2850 N.3   480  VAL480     -0.1245
    104  CA        17.1640    2.8890    7.5690 C.3   480  VAL480      0.1561
    105  C         15.6860    2.5910    7.8420 C.2   480  VAL480      0.2260
    106  O         14.8460    3.4950    7.8500 O.2   480  VAL480     -0.2867
    107  CB        17.4440    2.8080    6.0470 C.3   480  VAL480      0.0252
    108  CG1       16.3730    3.5530    5.2620 C.3   480  VAL480      0.0019
    109  CG2       18.8160    3.3850    5.7500 C.3   480  VAL480      0.0019
@<TRIPOS>BOND
     1    38    39    1
     2    46    47    1
     3    91    90    2
     4    40    39    1
     5    40    41    2
     6    39    42    1
     7    51    53    1
     8    51    52    1
     9    51    50    1
    10    47    50    1
    11    47    48    1
    12    90    89    1
    13    89    88    1
    14    89    92    1
    15    42    43    1
    16    48    54   am
    17    48    49    2
    18    44    43   ar
    19    54    55    1
    20    43    45   ar
    21    92    93    1
    22    93    94    1
    23    56    55    1
    24    56    57    2
    25    96    94   ar
    26    94    95   ar
    27    58    59    1
    28    11     9    1
    29    77    76    2
    30    82    81    2
    31     9     8    2
    32     9    10    1
    33     8     7    1
    34    59    60    1
    35    59    62    1
    36    76    75    1
    37    76    79   am
    38    81    80    1
    39    60    61    2
    40    75    78    1
    41    75    74    1
    42    62    63    1
    43    80    79    1
    44    80    83    1
    45     7     6    1
    46    63    65    1
    47    63    64    1
    48     6     5    1
    49    36    35    1
    50    37    35    1
    51    25    24    1
    52    83    84    1
    53    84    85    1
    54    35    32    1
    55     5     2    1
    56    23    24    1
    57    23    22    1
    58    85    86    1
    59    22    21    1
    60     2     3    1
    61     2     1    1
    62    21    18    1
    63    30    27    1
    64    69    68    2
    65    32    33    1
    66    32    31    1
    67    34    33    2
    68     4     3    2
    69    27    26    1
    70    27    28    1
    71    20    19    2
    72     3    12   am
    73    26    19   am
    74    19    18    1
    75    86    87    1
    76    68    67    1
    77    29    28    2
    78    18    17    1
    79    67    66    1
    80    67    70    1
    81    12    13    1
    82    73    71    1
    83    13    14    1
    84    13    16    1
    85    70    71    1
    86    71    72    1
    87    14    15    2
    88   108   107    1
    89   109   107    1
    90   107   104    1
    91   102   101    1
    92   101    98    1
    93   104   105    1
    94   104   103    1
    95   105   106    2
    96    98    97    1
    97    98    99    1
    98    99   100    2
