@<TRIPOS>MOLECULE
tmp/1e7fA06.pdb
 126 118 0 0 0
SMALL
GASTEIGER

@<TRIPOS>ATOM
      1  N         28.6080    4.4010   14.7370 N.3   197  LYS197     -0.1245
      2  CA        29.1080    4.5990   13.3840 C.3   197  LYS197      0.1561
      3  C         30.0010    3.4370   12.9510 C.2   197  LYS197      0.2260
      4  O         29.9480    2.9960   11.8020 O.2   197  LYS197     -0.2867
      5  CB        29.8670    5.9320   13.2830 C.3   197  LYS197      0.0271
      6  CG        29.2820    6.8780   12.2260 C.3   197  LYS197      0.0035
      7  CD        29.6920    8.3410   12.4070 C.3   197  LYS197      0.0206
      8  CE        28.9080    9.2390   11.4430 C.3   197  LYS197      0.1093
      9  NZ        28.4540   10.5300   12.0490 N.3   197  LYS197     -0.1314
     10  N         24.9060   13.2620    3.7660 N.3   216  ARG216     -0.1231
     11  CA        25.2490   14.1280    4.8840 C.3   216  ARG216      0.1694
     12  C         26.2850   15.1950    4.5220 C.2   216  ARG216      0.2591
     13  O         26.1400   16.3540    4.9030 O.2   216  ARG216     -0.2718
     14  CB        25.7440   13.2820    6.0710 C.3   216  ARG216      0.0321
     15  CG        26.7230   13.9940    6.9980 C.3   216  ARG216      0.0489
     16  CD        26.4790   13.6810    8.4760 C.3   216  ARG216      0.2205
     17  NE        27.2850   14.5460    9.3430 N.pl3 216  ARG216     -0.0865
     18  CZ        28.4380   14.1930    9.9130 C.cat 216  ARG216      0.5346
     19  NH1       28.9400   12.9800    9.7180 N.pl3 216  ARG216      0.1354
     20  NH2       29.1040   15.0640   10.6650 N.pl3 216  ARG216      0.1354
     21  N         27.3310   14.8070    3.7960 N.am  217  LEU217     -0.1980
     22  CA        28.3750   15.7520    3.3960 C.3   217  LEU217      0.1596
     23  C         27.8140   16.7710    2.4070 C.2   217  LEU217      0.2287
     24  O         28.1380   17.9570    2.4680 O.2   217  LEU217     -0.2864
     25  CB        29.5450   15.0150    2.7420 C.3   217  LEU217      0.0297
     26  CG        30.7060   14.5890    3.6400 C.3   217  LEU217      0.0022
     27  CD1       31.8380   14.0510    2.7800 C.3   217  LEU217      0.0001
     28  CD2       31.1810   15.7600    4.4610 C.3   217  LEU217      0.0001
     29  N         25.7210   19.5600    3.9960 N.3   220  ARG220     -0.1231
     30  CA        26.5580   20.5370    4.6600 C.3   220  ARG220      0.1694
     31  C         27.3100   21.4320    3.6750 C.2   220  ARG220      0.2592
     32  O         27.4730   22.6340    3.9050 O.2   220  ARG220     -0.2718
     33  CB        27.5560   19.8000    5.5480 C.3   220  ARG220      0.0321
     34  CG        28.3370   20.6900    6.4870 C.3   220  ARG220      0.0489
     35  CD        28.3300   20.1290    7.9070 C.3   220  ARG220      0.2205
     36  NE        27.0840   19.4250    8.2110 N.pl3 220  ARG220     -0.0865
     37  CZ        26.8340   18.7980    9.3570 C.cat 220  ARG220      0.5346
     38  NH1       27.7450   18.7790   10.3270 N.pl3 220  ARG220      0.1354
     39  NH2       25.6670   18.1870    9.5280 N.pl3 220  ARG220      0.1354
     40  N         27.7830   20.8340    2.5860 N.am  221  PHE221     -0.1976
     41  CA        28.5290   21.5600    1.5610 C.3   221  PHE221      0.1639
     42  C         27.7050   21.5740    0.2760 C.2   221  PHE221      0.2290
     43  O         28.0880   20.9650   -0.7200 O.2   221  PHE221     -0.2864
     44  CB        29.8660   20.8620    1.3050 C.3   221  PHE221      0.0560
     45  CG        30.6610   20.5790    2.5530 C.ar  221  PHE221     -0.0200
     46  CD1       30.6630   21.4730    3.6210 C.ar  221  PHE221     -0.0042
     47  CD2       31.4470   19.4330    2.6440 C.ar  221  PHE221     -0.0042
     48  CE1       31.4470   21.2260    4.7620 C.ar  221  PHE221     -0.0003
     49  CE2       32.2300   19.1820    3.7770 C.ar  221  PHE221     -0.0003
     50  CZ        32.2290   20.0790    4.8340 C.ar  221  PHE221     -0.0000
     51  N         36.7200   10.2080    3.7990 N.3   236  LEU236     -0.1245
     52  CA        36.0070   10.1280    5.0550 C.3   236  LEU236      0.1561
     53  C         35.8710    8.6760    5.4580 C.2   236  LEU236      0.2260
     54  O         36.2300    8.2940    6.5700 O.2   236  LEU236     -0.2867
     55  CB        34.6180   10.7420    4.9060 C.3   236  LEU236      0.0270
     56  CG        34.0910   11.5840    6.0660 C.3   236  LEU236      0.0019
     57  CD1       32.5800   11.5560    6.0480 C.3   236  LEU236      0.0001
     58  CD2       34.6210   11.0510    7.3750 C.3   236  LEU236      0.0001
     59  N         38.8350    7.1200    6.7130 N.3   239  VAL239     -0.1231
     60  CA        39.1600    7.6200    8.0410 C.3   239  VAL239      0.1692
     61  C         38.4190    6.8180    9.0980 C.2   239  VAL239      0.2592
     62  O         39.0100    6.4010   10.0890 O.2   239  VAL239     -0.2718
     63  CB        38.7830    9.1220    8.1940 C.3   239  VAL239      0.0266
     64  CG1       38.6840    9.4910    9.6610 C.3   239  VAL239      0.0020
     65  CG2       39.8270    9.9950    7.5210 C.3   239  VAL239      0.0020
     66  N         37.1280    6.5960    8.8810 N.am  240  HIS240     -0.1976
     67  CA        36.3310    5.8510    9.8410 C.3   240  HIS240      0.1656
     68  C         36.7910    4.4230    9.9730 C.2   240  HIS240      0.2291
     69  O         36.8460    3.8920   11.0820 O.2   240  HIS240     -0.2864
     70  CB        34.8580    5.9100    9.4660 C.3   240  HIS240      0.0771
     71  CG        34.2250    7.2090    9.8340 C.ar  240  HIS240      0.0820
     72  ND1       34.0630    7.6040   11.1440 N.ar  240  HIS240     -0.2267
     73  CD2       33.8000    8.2460    9.0740 C.ar  240  HIS240      0.1154
     74  CE1       33.5670    8.8260   11.1750 C.ar  240  HIS240      0.1986
     75  NE2       33.3980    9.2390    9.9330 N.ar  240  HIS240     -0.2212
     76  N         42.8570   11.9510   10.1090 N.3   255  ARG255     -0.1245
     77  CA        41.9490   13.0640   10.3370 C.3   255  ARG255      0.1563
     78  C         42.6820   14.3680   10.1090 C.2   255  ARG255      0.2260
     79  O         42.1210   15.3140    9.5780 O.2   255  ARG255     -0.2867
     80  CB        41.4210   13.0530   11.7660 C.3   255  ARG255      0.0307
     81  CG        40.2920   12.0980   12.0200 C.3   255  ARG255      0.0489
     82  CD        39.9920   12.0770   13.4930 C.3   255  ARG255      0.2205
     83  NE        38.6720   12.6230   13.7940 N.pl3 255  ARG255     -0.0865
     84  CZ        38.4640   13.8170   14.3330 C.cat 255  ARG255      0.5346
     85  NH1       39.4940   14.5950   14.6300 N.pl3 255  ARG255      0.1354
     86  NH2       37.2300   14.2250   14.5930 N.pl3 255  ARG255      0.1354
     87  N         42.8470   14.8370    6.1420 N.3   258  LEU258     -0.1231
     88  CA        41.5740   15.2260    5.5450 C.3   258  LEU258      0.1693
     89  C         41.1900   16.6540    5.9210 C.2   258  LEU258      0.2591
     90  O         40.5160   17.3450    5.1610 O.2   258  LEU258     -0.2718
     91  CB        40.4650   14.2650    5.9760 C.3   258  LEU258      0.0284
     92  CG        39.0370   14.6800    5.6260 C.3   258  LEU258      0.0019
     93  CD1       38.9430   15.0690    4.1610 C.3   258  LEU258      0.0001
     94  CD2       38.1020   13.5350    5.9230 C.3   258  LEU258      0.0001
     95  N         41.6260   17.0980    7.0930 N.am  259  ALA259     -0.1980
     96  CA        41.3150   18.4460    7.5480 C.3   259  ALA259      0.1597
     97  C         42.1570   19.4590    6.7840 C.2   259  ALA259      0.2287
     98  O         41.6760   20.5440    6.4460 O.2   259  ALA259     -0.2864
     99  CB        41.5730   18.5720    9.0450 C.3   259  ALA259      0.0319
    100  N         40.6130   19.7910    3.2890 N.3   262  ILE262     -0.1245
    101  CA        39.3920   20.5830    3.2880 C.3   262  ILE262      0.1561
    102  C         39.6620   22.0660    3.5040 C.2   262  ILE262      0.2260
    103  O         38.9530   22.9140    2.9630 O.2   262  ILE262     -0.2867
    104  CB        38.4050   20.0830    4.3700 C.3   262  ILE262      0.0252
    105  CG1       38.0120   18.6400    4.0650 C.3   262  ILE262      0.0019
    106  CG2       37.1600   20.9610    4.4080 C.3   262  ILE262      0.0019
    107  CD1       36.8190   18.1500    4.8430 C.3   262  ILE262      0.0001
    108  N         39.8870   19.3340   12.7790 N.3   285  SER285     -0.1217
    109  CA        38.8840   18.3380   12.3870 C.3   285  SER285      0.1889
    110  C         37.6320   18.4050   13.2440 C.2   285  SER285      0.2288
    111  O         36.5190   18.4090   12.7180 O.2   285  SER285     -0.2866
    112  CB        39.4610   16.9180   12.4480 C.3   285  SER285      0.2089
    113  OG        40.6370   16.8720   13.2260 O.3   285  SER285     -0.2183
    114  N         35.5550   21.4060   12.1240 N.3   288  ILE288     -0.1231
    115  CA        34.9400   21.1210   10.8330 C.3   288  ILE288      0.1692
    116  C         33.7740   20.1410   10.9100 C.2   288  ILE288      0.2591
    117  O         32.7310   20.3710   10.2960 O.2   288  ILE288     -0.2718
    118  CB        35.9930   20.5750    9.8320 C.3   288  ILE288      0.0266
    119  CG1       37.1690   21.5520    9.7240 C.3   288  ILE288      0.0019
    120  CG2       35.3550   20.3650    8.4670 C.3   288  ILE288      0.0020
    121  CD1       38.2260   21.1380    8.7240 C.3   288  ILE288      0.0001
    122  N         33.9470   19.0540   11.6600 N.am  289  ALA289     -0.1980
    123  CA        32.8950   18.0440   11.8020 C.3   289  ALA289      0.1597
    124  C         31.6090   18.6550   12.3420 C.2   289  ALA289      0.2287
    125  O         30.5030   18.2860   11.9350 O.2   289  ALA289     -0.2864
    126  CB        33.3660   16.9240   12.7200 C.3   289  ALA289      0.0319
@<TRIPOS>BOND
     1    43    42    2
     2    42    41    1
     3    44    41    1
     4    44    45    1
     5    41    40    1
     6    23    24    2
     7    23    22    1
     8    45    47   ar
     9    45    46   ar
    10    40    31   am
    11    47    49   ar
    12    25    22    1
    13    25    26    1
    14    27    26    1
    15   103   102    2
    16   101   100    1
    17   101   102    1
    18   101   104    1
    19    22    21    1
    20    46    48   ar
    21    26    28    1
    22    31    32    2
    23    31    30    1
    24    10    11    1
    25    49    50   ar
    26    21    12   am
    27    51    52    1
    28    29    30    1
    29   105   104    1
    30   105   107    1
    31    93    92    1
    32   104   106    1
    33    12    11    1
    34    12    13    2
    35    30    33    1
    36    48    50   ar
    37    11    14    1
    38    55    52    1
    39    55    56    1
    40    52    53    1
    41    90    89    2
    42    53    54    2
    43    88    89    1
    44    88    91    1
    45    88    87    1
    46    33    34    1
    47    92    94    1
    48    92    91    1
    49    89    95   am
    50    57    56    1
    51    56    58    1
    52    14    15    1
    53    98    97    2
    54    34    35    1
    55    59    60    1
    56    97    96    1
    57    15    16    1
    58    95    96    1
    59    65    63    1
    60    96    99    1
    61    35    36    1
    62    60    63    1
    63    60    61    1
    64    63    64    1
    65    36    37    2
    66   120   118    1
    67    16    17    1
    68   121   119    1
    69    66    61   am
    70    66    67    1
    71    73    71   ar
    72    73    75   ar
    73    61    62    2
    74    17    18    2
    75    37    39    1
    76    37    38    1
    77    70    71    1
    78    70    67    1
    79    79    78    2
    80    19    18    1
    81   119   118    1
    82   118   115    1
    83    71    72   ar
    84    67    68    1
    85    18    20    1
    86    75    74   ar
    87    68    69    2
    88    76    77    1
    89    78    77    1
    90   117   116    2
    91    77    80    1
    92   115   116    1
    93   115   114    1
    94   116   122   am
    95    72    74   ar
    96     8     9    1
    97     8     7    1
    98   122   123    1
    99    80    81    1
   100   123   124    1
   101   123   126    1
   102     4     3    2
   103   125   124    2
   104    81    82    1
   105     6     7    1
   106     6     5    1
   107   109   112    1
   108   109   108    1
   109   109   110    1
   110   112   113    1
   111   111   110    2
   112     3     2    1
   113     5     2    1
   114     2     1    1
   115    82    83    1
   116    83    84    2
   117    84    86    1
   118    84    85    1
