@<TRIPOS>MOLECULE
tmp/1e7fA07.pdb
 128 122 0 0 0
SMALL
GASTEIGER

@<TRIPOS>ATOM
      1  N         58.4670   12.2230   17.7630 N.3     5  VAL5       -0.1245
      2  CA        58.1480   12.9880   18.9720 C.3     5  VAL5        0.1561
      3  C         58.3630   14.4790   18.8310 C.2     5  VAL5        0.2260
      4  O         57.4170   15.2680   18.9210 O.2     5  VAL5       -0.2867
      5  CB        58.9750   12.5730   20.1920 C.3     5  VAL5        0.0252
      6  CG1       58.1720   11.6500   21.0500 C.3     5  VAL5        0.0019
      7  CG2       60.2890   11.9400   19.7580 C.3     5  VAL5        0.0019
      8  N         50.3870   17.7110   24.7810 N.3    17  PHE17      -0.1241
      9  CA        51.1790   16.5120   24.5520 C.3    17  PHE17       0.1605
     10  C         51.0610   15.6170   25.7830 C.2    17  PHE17       0.2264
     11  O         50.6160   14.4760   25.6900 O.2    17  PHE17      -0.2867
     12  CB        52.6370   16.8920   24.3150 C.3    17  PHE17       0.0534
     13  CG        53.5560   15.7210   24.1020 C.ar   17  PHE17      -0.0203
     14  CD1       53.6570   15.1160   22.8530 C.ar   17  PHE17      -0.0042
     15  CD2       54.3730   15.2650   25.1340 C.ar   17  PHE17      -0.0042
     16  CE1       54.5690   14.0810   22.6320 C.ar   17  PHE17      -0.0003
     17  CE2       55.2890   14.2290   24.9250 C.ar   17  PHE17      -0.0003
     18  CZ        55.3860   13.6360   23.6730 C.ar   17  PHE17      -0.0000
     19  N         49.3790   11.7400   25.9060 N.3    21  VAL21      -0.1245
     20  CA        50.1920   10.5800   26.2320 C.3    21  VAL21       0.1561
     21  C         49.5240    9.8310   27.3890 C.2    21  VAL21       0.2260
     22  O         49.4740    8.6000   27.4060 O.2    21  VAL21      -0.2867
     23  CB        51.6080   11.0070   26.6480 C.3    21  VAL21       0.0252
     24  CG1       52.3170    9.8800   27.3820 C.3    21  VAL21       0.0019
     25  CG2       52.3880   11.4030   25.4260 C.3    21  VAL21       0.0019
     26  N         46.3230    7.9920   26.0740 N.3    24  ALA24      -0.1231
     27  CA        46.7280    6.8640   25.2430 C.3    24  ALA24       0.1694
     28  C         47.2410    5.7010   26.0860 C.2    24  ALA24       0.2592
     29  O         46.8440    4.5580   25.8790 O.2    24  ALA24      -0.2718
     30  CB        47.8130    7.3090   24.2500 C.3    24  ALA24       0.0304
     31  N         48.1350    5.9990   27.0210 N.am   25  PHE25      -0.1976
     32  CA        48.7000    4.9810   27.8940 C.3    25  PHE25       0.1639
     33  C         47.6350    4.4050   28.8220 C.2    25  PHE25       0.2290
     34  O         47.7790    3.2930   29.3230 O.2    25  PHE25      -0.2864
     35  CB        49.8190    5.5790   28.7390 C.3    25  PHE25       0.0560
     36  CG        51.1860    5.3920   28.1550 C.ar   25  PHE25      -0.0200
     37  CD1       51.6950    4.1160   27.9370 C.ar   25  PHE25      -0.0042
     38  CD2       51.9820    6.4970   27.8460 C.ar   25  PHE25      -0.0042
     39  CE1       52.9770    3.9400   27.4220 C.ar   25  PHE25      -0.0003
     40  CE2       53.2680    6.3360   27.3290 C.ar   25  PHE25      -0.0003
     41  CZ        53.7670    5.0550   27.1170 C.ar   25  PHE25      -0.0000
     42  N         58.3760   10.3970   31.8370 N.3    43  GLU43      -0.1231
     43  CA        59.5050    9.7660   31.1700 C.3    43  GLU43       0.1699
     44  C         59.4600   10.0310   29.6700 C.2    43  GLU43       0.2592
     45  O         60.4860   10.3100   29.0480 O.2    43  GLU43      -0.2718
     46  CB        59.4770    8.2660   31.4030 C.3    43  GLU43       0.0402
     47  CG        60.2470    7.8300   32.6110 C.3    43  GLU43       0.1161
     48  CD        59.8590    6.4400   33.0410 C.2    43  GLU43       0.3649
     49  OE1       59.3930    5.6650   32.1730 O.co2  43  GLU43      -0.2457
     50  OE2       60.0170    6.1250   34.2420 O.co2  43  GLU43      -0.2457
     51  N         58.2650    9.9240   29.0960 N.am   44  VAL44      -0.1980
     52  CA        58.0580   10.1490   27.6710 C.3    44  VAL44       0.1595
     53  C         58.2670   11.6280   27.3160 C.2    44  VAL44       0.2287
     54  O         58.9410   11.9500   26.3310 O.2    44  VAL44      -0.2864
     55  CB        56.6330    9.7040   27.2530 C.3    44  VAL44       0.0276
     56  CG1       56.2900   10.2420   25.8710 C.3    44  VAL44       0.0022
     57  CG2       56.5440    8.1850   27.2720 C.3    44  VAL44       0.0022
     58  N         61.5910   12.7580   27.2750 N.3    47  PHE47      -0.1241
     59  CA        62.1990   12.2430   26.0590 C.3    47  PHE47       0.1605
     60  C         61.9210   13.1970   24.8970 C.2    47  PHE47       0.2264
     61  O         62.8440   13.6760   24.2440 O.2    47  PHE47      -0.2867
     62  CB        61.6370   10.8600   25.7330 C.3    47  PHE47       0.0534
     63  CG        62.1700   10.2870   24.4640 C.ar   47  PHE47      -0.0203
     64  CD1       63.5260    9.9900   24.3370 C.ar   47  PHE47      -0.0042
     65  CD2       61.3280   10.0700   23.3820 C.ar   47  PHE47      -0.0042
     66  CE1       64.0360    9.4870   23.1460 C.ar   47  PHE47      -0.0003
     67  CE2       61.8250    9.5670   22.1870 C.ar   47  PHE47      -0.0003
     68  CZ        63.1810    9.2750   22.0690 C.ar   47  PHE47      -0.0000
     69  N         56.6720    6.7050   16.2890 N.3    64  LEU64      -0.1245
     70  CA        55.8530    6.7850   17.4940 C.3    64  LEU64       0.1561
     71  C         55.2820    5.4150   17.8570 C.2    64  LEU64       0.2260
     72  O         55.1660    5.0770   19.0370 O.2    64  LEU64      -0.2867
     73  CB        54.7190    7.7990   17.3050 C.3    64  LEU64       0.0270
     74  CG        55.0510    9.2720   17.5840 C.3    64  LEU64       0.0019
     75  CD1       53.7840   10.0980   17.4860 C.3    64  LEU64       0.0001
     76  CD2       55.6800    9.4270   18.9610 C.3    64  LEU64       0.0001
     77  N         58.2980    3.4960   19.3560 N.3    67  LEU67      -0.1231
     78  CA        58.6470    4.0450   20.6570 C.3    67  LEU67       0.1693
     79  C         57.5640    3.7230   21.6750 C.2    67  LEU67       0.2592
     80  O         57.8570    3.4340   22.8340 O.2    67  LEU67      -0.2718
     81  CB        58.8380    5.5590   20.5550 C.3    67  LEU67       0.0284
     82  CG        60.2290    6.0210   20.1010 C.3    67  LEU67       0.0019
     83  CD1       60.2150    7.5270   19.8830 C.3    67  LEU67       0.0001
     84  CD2       61.2800    5.6320   21.1410 C.3    67  LEU67       0.0001
     85  N         56.3110    3.7670   21.2400 N.am   68  PHE68      -0.1976
     86  CA        55.2030    3.4690   22.1380 C.3    68  PHE68       0.1639
     87  C         55.2470    2.0250   22.6460 C.2    68  PHE68       0.2290
     88  O         55.3190    1.7860   23.8540 O.2    68  PHE68      -0.2864
     89  CB        53.8630    3.7330   21.4470 C.3    68  PHE68       0.0560
     90  CG        52.6880    3.6960   22.3860 C.ar   68  PHE68      -0.0200
     91  CD1       52.6110    4.5800   23.4620 C.ar   68  PHE68      -0.0042
     92  CD2       51.6710    2.7630   22.2150 C.ar   68  PHE68      -0.0042
     93  CE1       51.5380    4.5360   24.3530 C.ar   68  PHE68      -0.0003
     94  CE2       50.5910    2.7110   23.1010 C.ar   68  PHE68      -0.0003
     95  CZ        50.5270    3.5980   24.1710 C.ar   68  PHE68      -0.0000
     96  N         57.5260    0.1830   22.7640 N.3    70  ASP70      -0.1225
     97  CA        58.7620   -0.0140   23.5100 C.3    70  ASP70       0.1805
     98  C         58.5150    0.3310   24.9720 C.2    70  ASP70       0.2597
     99  O         58.9360   -0.3990   25.8710 O.2    70  ASP70      -0.2718
    100  CB        59.8800    0.8750   22.9440 C.3    70  ASP70       0.1424
    101  CG        60.6420    0.2140   21.8010 C.2    70  ASP70       0.3668
    102  OD1       60.3060   -0.9330   21.4360 O.co2  70  ASP70      -0.2456
    103  OD2       61.5800    0.8460   21.2650 O.co2  70  ASP70      -0.2456
    104  N         57.8270    1.4450   25.2030 N.am   71  LYS71      -0.1979
    105  CA        57.5240    1.8780   26.5590 C.3    71  LYS71       0.1596
    106  C         56.5530    0.8970   27.2090 C.2    71  LYS71       0.2287
    107  O         56.7370    0.5050   28.3560 O.2    71  LYS71      -0.2864
    108  CB        56.9160    3.2870   26.5470 C.3    71  LYS71       0.0298
    109  CG        57.7730    4.3550   27.2240 C.3    71  LYS71       0.0038
    110  CD        57.8260    4.1740   28.7380 C.3    71  LYS71       0.0206
    111  CE        58.8020    5.1550   29.3950 C.3    71  LYS71       0.1093
    112  NZ        60.0520    4.5120   29.9130 N.3    71  LYS71      -0.1314
    113  N         45.0230    4.9510   17.3500 N.3   248  LEU248     -0.1231
    114  CA        44.9510    6.3940   17.5150 C.3   248  LEU248      0.1693
    115  C         45.8480    7.1560   16.5450 C.2   248  LEU248      0.2591
    116  O         45.3740    8.0400   15.8310 O.2   248  LEU248     -0.2718
    117  CB        45.3030    6.7690   18.9590 C.3   248  LEU248      0.0284
    118  CG        45.4720    8.2450   19.3440 C.3   248  LEU248      0.0019
    119  CD1       44.1890    9.0180   19.0930 C.3   248  LEU248      0.0001
    120  CD2       45.8570    8.3270   20.8090 C.3   248  LEU248      0.0001
    121  N         47.1330    6.8120   16.5140 N.am  249  LEU249     -0.1980
    122  CA        48.0830    7.4920   15.6420 C.3   249  LEU249      0.1596
    123  C         47.6630    7.4940   14.1880 C.2   249  LEU249      0.2287
    124  O         47.5950    8.5470   13.5590 O.2   249  LEU249     -0.2864
    125  CB        49.4590    6.8590   15.7730 C.3   249  LEU249      0.0297
    126  CG        50.2060    7.3490   17.0100 C.3   249  LEU249      0.0022
    127  CD1       51.5360    6.6200   17.1390 C.3   249  LEU249      0.0001
    128  CD2       50.4060    8.8570   16.9040 C.3   249  LEU249      0.0001
@<TRIPOS>BOND
     1   124   123    2
     2   123   122    1
     3   122   125    1
     4   122   121    1
     5   125   126    1
     6   116   115    2
     7    69    70    1
     8   121   115   am
     9   115   114    1
    10   128   126    1
    11   126   127    1
    12    73    70    1
    13    73    74    1
    14   113   114    1
    15    75    74    1
    16    70    71    1
    17   114   117    1
    18    74    76    1
    19     1     2    1
    20    71    72    2
    21     3     4    2
    22     3     2    1
    23   117   118    1
    24     2     5    1
    25   119   118    1
    26   118   120    1
    27    77    78    1
    28     7     5    1
    29    83    82    1
    30    82    81    1
    31    82    84    1
    32     5     6    1
    33    81    78    1
    34    78    79    1
    35    85    79   am
    36    85    86    1
    37   103   101   ar
    38   102   101   ar
    39    89    86    1
    40    89    90    1
    41    79    80    2
    42   101   100    1
    43    68    67   ar
    44    68    66   ar
    45    86    87    1
    46    67    65   ar
    47    92    90   ar
    48    92    94   ar
    49    90    91   ar
    50    16    14   ar
    51    16    18   ar
    52    87    88    2
    53    96    97    1
    54    14    13   ar
    55   100    97    1
    56    94    95   ar
    57    66    64   ar
    58    65    63   ar
    59    91    93   ar
    60    97    98    1
    61    18    17   ar
    62    13    12    1
    63    13    15   ar
    64    95    93   ar
    65    61    60    2
    66    30    27    1
    67    12     9    1
    68    64    63   ar
    69    63    62    1
    70     9     8    1
    71     9    10    1
    72    60    59    1
    73    17    15   ar
    74    98   104   am
    75    98    99    2
    76   104   105    1
    77    27    26    1
    78    27    28    1
    79    25    23    1
    80    11    10    2
    81    62    59    1
    82    56    55    1
    83    29    28    2
    84    19    20    1
    85    59    58    1
    86    28    31   am
    87    20    23    1
    88    20    21    1
    89    54    53    2
    90   108   105    1
    91   108   109    1
    92   105   106    1
    93    23    24    1
    94    31    32    1
    95    41    40   ar
    96    41    39   ar
    97   106   107    2
    98   109   110    1
    99    55    57    1
   100    55    52    1
   101    53    52    1
   102    40    38   ar
   103    21    22    2
   104    39    37   ar
   105    52    51    1
   106    38    36   ar
   107    32    35    1
   108    32    33    1
   109    37    36   ar
   110    36    35    1
   111   110   111    1
   112    33    34    2
   113    45    44    2
   114    51    44   am
   115   111   112    1
   116    44    43    1
   117    43    46    1
   118    43    42    1
   119    46    47    1
   120    49    48   ar
   121    47    48    1
   122    48    50   ar
