@<TRIPOS>MOLECULE
tmp/1e7hA05.pdb
 159 147 0 0 0
SMALL
GASTEIGER

@<TRIPOS>ATOM
      1  N         26.6300   -2.8190    7.9500 N.3   204  PHE204     -0.1241
      2  CA        26.2270   -2.5550    6.5720 C.3   204  PHE204      0.1605
      3  C         27.2910   -2.2130    5.5360 C.2   204  PHE204      0.2264
      4  O         26.9750   -1.6830    4.4780 O.2   204  PHE204     -0.2867
      5  CB        25.1600   -1.4680    6.5750 C.3   204  PHE204      0.0534
      6  CG        24.1180   -1.6650    7.6220 C.ar  204  PHE204     -0.0203
      7  CD1       24.3540   -1.2690    8.9340 C.ar  204  PHE204     -0.0042
      8  CD2       22.9080   -2.2730    7.3070 C.ar  204  PHE204     -0.0042
      9  CE1       23.4000   -1.4770    9.9200 C.ar  204  PHE204     -0.0003
     10  CE2       21.9460   -2.4860    8.2830 C.ar  204  PHE204     -0.0003
     11  CZ        22.1910   -2.0870    9.5960 C.ar  204  PHE204     -0.0000
     12  N         29.4080    0.5830    1.2180 N.3   207  ARG207     -0.1231
     13  CA        28.4180    1.1830    0.3330 C.3   207  ARG207      0.1694
     14  C         27.4030    2.0440    1.0670 C.2   207  ARG207      0.2591
     15  O         27.2220    3.2140    0.7340 O.2   207  ARG207     -0.2718
     16  CB        27.6930    0.1060   -0.4760 C.3   207  ARG207      0.0321
     17  CG        27.2300    0.5770   -1.8570 C.3   207  ARG207      0.0489
     18  CD        25.8310    0.0690   -2.1370 C.3   207  ARG207      0.2205
     19  NE        25.2590    0.5570   -3.3890 N.pl3 207  ARG207     -0.0865
     20  CZ        23.9530    0.5710   -3.6520 C.cat 207  ARG207      0.5346
     21  NH1       23.0840    0.1200   -2.7500 N.pl3 207  ARG207      0.1354
     22  NH2       23.5090    1.0250   -4.8180 N.pl3 207  ARG207      0.1354
     23  N         26.7320    1.4710    2.0600 N.am  208  ALA208     -0.1980
     24  CA        25.7420    2.2290    2.8180 C.3   208  ALA208      0.1597
     25  C         26.4200    3.3860    3.5490 C.2   208  ALA208      0.2287
     26  O         25.8910    4.4990    3.6030 O.2   208  ALA208     -0.2864
     27  CB        25.0320    1.3250    3.8100 C.3   208  ALA208      0.0319
     28  N         29.1060    5.0330    2.6710 N.3   210  LYS210     -0.1231
     29  CA        29.4080    6.0510    1.6650 C.3   210  LYS210      0.1693
     30  C         28.1450    6.7820    1.2620 C.2   210  LYS210      0.2591
     31  O         28.1440    8.0050    1.1320 O.2   210  LYS210     -0.2718
     32  CB        30.0570    5.4190    0.4360 C.3   210  LYS210      0.0285
     33  CG        31.5330    5.1110    0.6260 C.3   210  LYS210      0.0035
     34  CD        32.1660    4.5990   -0.6600 C.3   210  LYS210      0.0206
     35  CE        33.6900    4.6920   -0.5940 C.3   210  LYS210      0.1093
     36  NZ        34.3600    3.4030   -0.9280 N.3   210  LYS210     -0.1314
     37  N         27.0670    6.0320    1.0610 N.am  211  ALA211     -0.1980
     38  CA        25.7950    6.6390    0.7060 C.3   211  ALA211      0.1597
     39  C         25.4420    7.6400    1.8020 C.2   211  ALA211      0.2287
     40  O         25.0700    8.7820    1.5220 O.2   211  ALA211     -0.2864
     41  CB        24.7040    5.5740    0.5790 C.3   211  ALA211      0.0319
     42  N         27.6800   10.7260    1.6930 N.3   214  VAL214     -0.1245
     43  CA        27.3960   11.5870    0.5610 C.3   214  VAL214      0.1561
     44  C         26.2970   12.5660    0.9340 C.2   214  VAL214      0.2260
     45  O         26.4830   13.7740    0.8360 O.2   214  VAL214     -0.2867
     46  CB        26.9570   10.7790   -0.6790 C.3   214  VAL214      0.0252
     47  CG1       26.2590   11.6800   -1.6640 C.3   214  VAL214      0.0019
     48  CG2       28.1600   10.1550   -1.3300 C.3   214  VAL214      0.0019
     49  N         30.1020   17.5420   -6.9170 N.3   226  PHE226     -0.1241
     50  CA        30.1900   16.0940   -6.7700 C.3   226  PHE226      0.1605
     51  C         31.5900   15.4820   -6.7450 C.2   226  PHE226      0.2264
     52  O         31.8550   14.5760   -5.9590 O.2   226  PHE226     -0.2867
     53  CB        29.3760   15.3900   -7.8420 C.3   226  PHE226      0.0534
     54  CG        29.2210   13.9340   -7.5850 C.ar  226  PHE226     -0.0203
     55  CD1       28.3600   13.4880   -6.5940 C.ar  226  PHE226     -0.0042
     56  CD2       29.9720   13.0040   -8.2890 C.ar  226  PHE226     -0.0042
     57  CE1       28.2550   12.1310   -6.2980 C.ar  226  PHE226     -0.0003
     58  CE2       29.8740   11.6430   -8.0010 C.ar  226  PHE226     -0.0003
     59  CZ        29.0130   11.2060   -7.0040 C.ar  226  PHE226     -0.0000
     60  N         32.6650   13.3140   -3.5320 N.3   230  SER230     -0.1217
     61  CA        33.1590   11.9360   -3.6090 C.3   230  SER230      0.1889
     62  C         34.5800   11.8640   -3.0780 C.2   230  SER230      0.2288
     63  O         34.9610   10.8980   -2.4190 O.2   230  SER230     -0.2866
     64  CB        33.1460   11.4050   -5.0490 C.3   230  SER230      0.2089
     65  OG        32.3080   12.1710   -5.8910 O.3   230  SER230     -0.2183
     66  N         34.2300   11.9160    0.6130 N.3   233  VAL233     -0.1245
     67  CA        33.5190   10.7210    1.0630 C.3   233  VAL233      0.1561
     68  C         34.4580    9.5260    1.0860 C.2   233  VAL233      0.2260
     69  O         34.3140    8.6160    1.9030 O.2   233  VAL233     -0.2867
     70  CB        32.3270   10.3730    0.1400 C.3   233  VAL233      0.0252
     71  CG1       31.8160    8.9670    0.4520 C.3   233  VAL233      0.0019
     72  CG2       31.2110   11.3980    0.3150 C.3   233  VAL233      0.0019
     73  N         26.2740    3.2110   -9.1230 N.3   322  ASP322     -0.1225
     74  CA        26.5160    3.8650   -7.8570 C.3   322  ASP322      0.1805
     75  C         26.8610    5.3290   -8.0120 C.2   322  ASP322      0.2597
     76  O         26.3470    6.1660   -7.2780 O.2   322  ASP322     -0.2718
     77  CB        27.6210    3.1430   -7.1130 C.3   322  ASP322      0.1424
     78  CG        27.1180    1.9060   -6.4240 C.2   322  ASP322      0.3668
     79  OD1       25.9260    1.5790   -6.6290 O.co2 322  ASP322     -0.2456
     80  OD2       27.9020    1.2680   -5.6850 O.co2 322  ASP322     -0.2456
     81  N         27.7280    5.6480   -8.9650 N.am  323  VAL323     -0.1980
     82  CA        28.1070    7.0390   -9.1770 C.3   323  VAL323      0.1595
     83  C         26.8990    7.8680   -9.5890 C.2   323  VAL323      0.2287
     84  O         26.7310    8.9990   -9.1360 O.2   323  VAL323     -0.2864
     85  CB        29.1810    7.1660  -10.2580 C.3   323  VAL323      0.0276
     86  CG1       29.5900    8.6220  -10.4090 C.3   323  VAL323      0.0022
     87  CG2       30.3800    6.3140   -9.8900 C.3   323  VAL323      0.0022
     88  N         23.7120    7.2040   -8.9100 N.3   325  LEU325     -0.1231
     89  CA        22.8620    7.2960   -7.7200 C.3   325  LEU325      0.1693
     90  C         23.4750    8.2500   -6.6890 C.2   325  LEU325      0.2592
     91  O         22.7630    8.9920   -6.0110 O.2   325  LEU325     -0.2718
     92  CB        22.6580    5.9090   -7.1000 C.3   325  LEU325      0.0284
     93  CG        21.6290    5.0310   -7.8170 C.3   325  LEU325      0.0019
     94  CD1       21.6530    3.6370   -7.2490 C.3   325  LEU325      0.0001
     95  CD2       20.2520    5.6360   -7.6710 C.3   325  LEU325      0.0001
     96  N         24.7950    8.2290   -6.5720 N.am  326  GLY326     -0.1957
     97  CA        25.4430    9.1290   -5.6420 C.3   326  GLY326      0.1869
     98  C         25.1720   10.5480   -6.1040 C.2   326  GLY326      0.2309
     99  O         25.0690   11.4710   -5.2920 O.2   326  GLY326     -0.2863
    100  N         21.7460   11.5660   -4.9440 N.3   329  LEU329     -0.1245
    101  CA        21.8240   11.8840   -3.5230 C.3   329  LEU329      0.1561
    102  C         22.4030   13.2740   -3.3380 C.2   329  LEU329      0.2260
    103  O         21.7800   14.1280   -2.7140 O.2   329  LEU329     -0.2867
    104  CB        22.7200   10.8830   -2.7930 C.3   329  LEU329      0.0270
    105  CG        22.0990    9.7060   -2.0410 C.3   329  LEU329      0.0019
    106  CD1       23.0990    9.2010   -1.0170 C.3   329  LEU329      0.0001
    107  CD2       20.8110   10.1320   -1.3700 C.3   329  LEU329      0.0001
    108  N         18.4170    8.8190    1.9740 N.3   345  LEU345     -0.1245
    109  CA        18.7910    7.4800    1.5320 C.3   345  LEU345      0.1561
    110  C         17.5170    6.7180    1.1680 C.2   345  LEU345      0.2260
    111  O         17.5160    5.8880    0.2600 O.2   345  LEU345     -0.2867
    112  CB        19.5310    6.7290    2.6440 C.3   345  LEU345      0.0270
    113  CG        20.7840    7.3550    3.2550 C.3   345  LEU345      0.0019
    114  CD1       21.2360    6.4970    4.4230 C.3   345  LEU345      0.0001
    115  CD2       21.8890    7.4680    2.2300 C.3   345  LEU345      0.0001
    116  N         16.8000    7.7950   -2.3040 N.3   348  ALA348     -0.1231
    117  CA        17.7550    7.2520   -3.2500 C.3   348  ALA348      0.1694
    118  C         17.4280    5.7940   -3.5250 C.2   348  ALA348      0.2591
    119  O         17.4920    5.3400   -4.6690 O.2   348  ALA348     -0.2718
    120  CB        19.1620    7.3760   -2.7040 C.3   348  ALA348      0.0304
    121  N         17.0660    5.0630   -2.4780 N.am  349  LYS349     -0.1980
    122  CA        16.7480    3.6540   -2.6350 C.3   349  LYS349      0.1596
    123  C         15.4950    3.4710   -3.4730 C.2   349  LYS349      0.2287
    124  O         15.4400    2.5750   -4.3090 O.2   349  LYS349     -0.2864
    125  CB        16.5740    2.9810   -1.2710 C.3   349  LYS349      0.0298
    126  CG        16.5210    1.4770   -1.3670 C.3   349  LYS349      0.0038
    127  CD        16.5460    0.7860   -0.0070 C.3   349  LYS349      0.0206
    128  CE        15.3800    1.1960    0.8900 C.3   349  LYS349      0.1093
    129  NZ        15.2580    0.2910    2.0790 N.3   349  LYS349     -0.1314
    130  N         16.5420    4.1340   -7.0240 N.3   352  GLU352     -0.1245
    131  CA        17.3140    3.0040   -7.5180 C.3   352  GLU352      0.1567
    132  C         16.3910    1.8580   -7.9160 C.2   352  GLU352      0.2260
    133  O         16.5780    1.2240   -8.9520 O.2   352  GLU352     -0.2867
    134  CB        18.2970    2.5350   -6.4410 C.3   352  GLU352      0.0388
    135  CG        18.4630    1.0310   -6.3480 C.3   352  GLU352      0.1160
    136  CD        19.5650    0.6280   -5.3910 C.2   352  GLU352      0.3649
    137  OE1       19.3420    0.6970   -4.1640 O.co2 352  GLU352     -0.2457
    138  OE2       20.6560    0.2410   -5.8600 O.co2 352  GLU352     -0.2457
    139  N         17.5160   -2.7460    8.0450 N.3   478  SER478     -0.1202
    140  CA        18.4410   -1.7570    7.4880 C.3   478  SER478      0.2020
    141  C         18.2890   -0.4610    8.2720 C.2   478  SER478      0.2619
    142  O         17.1790   -0.0810    8.6510 O.2   478  SER478     -0.2717
    143  CB        18.1440   -1.4990    6.0070 C.3   478  SER478      0.2103
    144  OG        16.7660   -1.2400    5.7990 O.3   478  SER478     -0.2182
    145  N         19.4010    0.2210    8.5140 N.am  479  LEU479     -0.1965
    146  CA        19.3580    1.4620    9.2720 C.3   479  LEU479      0.1728
    147  C         18.3900    2.4600    8.6540 C.2   479  LEU479      0.2616
    148  O         18.0250    3.4540    9.2780 O.2   479  LEU479     -0.2715
    149  CB        20.7610    2.0710    9.3760 C.3   479  LEU479      0.0311
    150  CG        21.6520    1.6090   10.5460 C.3   479  LEU479      0.0022
    151  CD1       22.2160    2.8330   11.2590 C.3   479  LEU479      0.0001
    152  CD2       20.8670    0.7400   11.5320 C.3   479  LEU479      0.0001
    153  N         17.9590    2.1810    7.4320 N.am  480  VAL480     -0.1977
    154  CA        17.0310    3.0630    6.7530 C.3   480  VAL480      0.1596
    155  C         15.5870    2.7400    7.1420 C.2   480  VAL480      0.2287
    156  O         14.7050    3.5930    7.0560 O.2   480  VAL480     -0.2864
    157  CB        17.2370    2.9610    5.2290 C.3   480  VAL480      0.0276
    158  CG1       15.9930    3.3850    4.4840 C.3   480  VAL480      0.0022
    159  CG2       18.4170    3.8310    4.8270 C.3   480  VAL480      0.0022
@<TRIPOS>BOND
     1    86    85    1
     2    85    87    1
     3    85    82    1
     4    83    82    1
     5    83    84    2
     6    82    81    1
     7    73    74    1
     8    81    75   am
     9   133   132    2
    10    88    89    1
    11    56    58   ar
    12    56    54   ar
    13    75    74    1
    14    75    76    2
    15    58    59   ar
    16   132   131    1
    17    74    77    1
    18    53    54    1
    19    53    50    1
    20    93    95    1
    21    93    94    1
    22    93    92    1
    23    89    92    1
    24    89    90    1
    25    54    55   ar
    26   131   130    1
    27   131   134    1
    28    77    78    1
    29    59    57   ar
    30    49    50    1
    31    50    51    1
    32    51    52    2
    33    90    96   am
    34    90    91    2
    35    79    78   ar
    36    55    57   ar
    37    96    97    1
    38   134   135    1
    39    78    80   ar
    40   135   136    1
    41    98    97    1
    42    98    99    2
    43    65    64    1
    44   138   136   ar
    45   136   137   ar
    46    64    61    1
    47   100   101    1
    48    22    20    1
    49   119   118    2
    50   124   123    2
    51    20    19    2
    52    20    21    1
    53    61    60    1
    54    61    62    1
    55   118   117    1
    56   118   121   am
    57   101   102    1
    58   101   104    1
    59   123   122    1
    60    19    18    1
    61   102   103    2
    62   117   120    1
    63   117   116    1
    64    62    63    2
    65   104   105    1
    66   122   121    1
    67   122   125    1
    68    18    17    1
    69   105   107    1
    70   105   106    1
    71    17    16    1
    72    47    46    1
    73   126   125    1
    74   126   127    1
    75    48    46    1
    76    36    35    1
    77    46    43    1
    78    34    35    1
    79    34    33    1
    80    16    13    1
    81   127   128    1
    82    70    72    1
    83    70    71    1
    84    70    67    1
    85   111   110    2
    86    13    14    1
    87    13    12    1
    88    32    33    1
    89    32    29    1
    90    43    44    1
    91    43    42    1
    92    41    38    1
    93    66    67    1
    94    38    37    1
    95    38    39    1
    96    15    14    2
    97    45    44    2
    98   128   129    1
    99    37    30   am
   100    67    68    1
   101    14    23   am
   102    68    69    2
   103    31    30    2
   104   110   109    1
   105    30    29    1
   106    40    39    2
   107   109   108    1
   108   109   112    1
   109    29    28    1
   110    23    24    1
   111   115   113    1
   112   112   113    1
   113    24    25    1
   114    24    27    1
   115   113   114    1
   116    25    26    2
   117     4     3    2
   118   158   157    1
   119   159   157    1
   120   157   154    1
   121     3     2    1
   122   144   143    1
   123   143   140    1
   124     2     5    1
   125     2     1    1
   126     5     6    1
   127   154   155    1
   128   154   153    1
   129   156   155    2
   130     8     6   ar
   131     8    10   ar
   132   153   147   am
   133   140   139    1
   134   140   141    1
   135     6     7   ar
   136   141   145   am
   137   141   142    2
   138    10    11   ar
   139   145   146    1
   140   147   146    1
   141   147   148    2
   142     7     9   ar
   143   146   149    1
   144   149   150    1
   145    11     9   ar
   146   150   151    1
   147   150   152    1
