@<TRIPOS>MOLECULE
tmp/1e7hA01.pdb
 222 209 0 0 0
SMALL
GASTEIGER

@<TRIPOS>ATOM
      1  N         58.4600   12.7770   17.1880 N.3     5  VAL5       -0.1245
      2  CA        57.9720   13.2900   18.4680 C.3     5  VAL5        0.1561
      3  C         58.2440   14.7780   18.5950 C.2     5  VAL5        0.2260
      4  O         57.3720   15.5540   19.0000 O.2     5  VAL5       -0.2867
      5  CB        58.6360   12.5940   19.6830 C.3     5  VAL5        0.0252
      6  CG1       57.9380   11.2790   19.9670 C.3     5  VAL5        0.0019
      7  CG2       60.1230   12.3970   19.4370 C.3     5  VAL5        0.0019
      8  N         55.6990   16.6120   16.6640 N.3     8  ARG8       -0.1245
      9  CA        54.3750   16.6160   17.2650 C.3     8  ARG8        0.1563
     10  C         54.4000   17.4280   18.5590 C.2     8  ARG8        0.2260
     11  O         53.4410   18.1370   18.8760 O.2     8  ARG8       -0.2867
     12  CB        53.9140   15.1840   17.5380 C.3     8  ARG8        0.0307
     13  CG        53.2730   14.5040   16.3400 C.3     8  ARG8        0.0489
     14  CD        51.9920   15.2140   15.9380 C.3     8  ARG8        0.2205
     15  NE        51.5120   14.8030   14.6220 N.pl3   8  ARG8       -0.0865
     16  CZ        50.9910   15.6380   13.7260 C.cat   8  ARG8        0.5346
     17  NH1       50.8810   16.9320   14.0040 N.pl3   8  ARG8        0.1354
     18  NH2       50.5720   15.1800   12.5520 N.pl3   8  ARG8        0.1354
     19  N         51.7640   20.4170   18.9600 N.3    12  LEU12      -0.1245
     20  CA        50.8940   20.2250   20.1100 C.3    12  LEU12       0.1561
     21  C         51.1480   21.1520   21.2900 C.2    12  LEU12       0.2260
     22  O         50.2090   21.6990   21.8660 O.2    12  LEU12      -0.2867
     23  CB        50.9940   18.7700   20.5770 C.3    12  LEU12       0.0270
     24  CG        49.8880   17.7800   20.1990 C.3    12  LEU12       0.0019
     25  CD1       49.0430   18.3010   19.0540 C.3    12  LEU12       0.0001
     26  CD2       50.5340   16.4650   19.8300 C.3    12  LEU12       0.0001
     27  N         50.4440   17.8800   24.8070 N.3    17  PHE17      -0.1241
     28  CA        51.2280   16.6710   24.5920 C.3    17  PHE17       0.1605
     29  C         51.1400   15.7340   25.7980 C.2    17  PHE17       0.2264
     30  O         50.7490   14.5680   25.6720 O.2    17  PHE17      -0.2867
     31  CB        52.6900   17.0370   24.3330 C.3    17  PHE17       0.0534
     32  CG        53.5660   15.8580   24.0060 C.ar   17  PHE17      -0.0203
     33  CD1       53.5430   15.2850   22.7380 C.ar   17  PHE17      -0.0042
     34  CD2       54.4200   15.3280   24.9630 C.ar   17  PHE17      -0.0042
     35  CE1       54.3620   14.1980   22.4260 C.ar   17  PHE17      -0.0003
     36  CE2       55.2430   14.2410   24.6610 C.ar   17  PHE17      -0.0003
     37  CZ        55.2120   13.6750   23.3870 C.ar   17  PHE17      -0.0000
     38  N         47.7350   14.2280   26.2690 N.3    20  LEU20      -0.1231
     39  CA        47.4580   13.1750   25.2970 C.3    20  LEU20       0.1693
     40  C         48.2700   11.9180   25.5580 C.2    20  LEU20       0.2591
     41  O         47.7740   10.8080   25.3830 O.2    20  LEU20      -0.2718
     42  CB        47.7390   13.6780   23.8860 C.3    20  LEU20       0.0284
     43  CG        46.6810   14.6430   23.3660 C.3    20  LEU20       0.0019
     44  CD1       47.1700   15.2950   22.0920 C.3    20  LEU20       0.0001
     45  CD2       45.3990   13.8910   23.1190 C.3    20  LEU20       0.0001
     46  N         49.5220   12.0710   25.9610 N.am   21  VAL21      -0.1980
     47  CA        50.3150   10.8820   26.2350 C.3    21  VAL21       0.1595
     48  C         49.6410   10.1510   27.3960 C.2    21  VAL21       0.2287
     49  O         49.5830    8.9270   27.4230 O.2    21  VAL21      -0.2864
     50  CB        51.7830   11.2390   26.6020 C.3    21  VAL21       0.0276
     51  CG1       52.5080   10.0170   27.1560 C.3    21  VAL21       0.0022
     52  CG2       52.5200   11.7500   25.3610 C.3    21  VAL21       0.0022
     53  N         46.4910    8.3350   25.9590 N.3    24  ALA24      -0.1231
     54  CA        46.9200    7.2190   25.1240 C.3    24  ALA24       0.1694
     55  C         47.3380    6.0270   25.9640 C.2    24  ALA24       0.2592
     56  O         46.9070    4.9040   25.7190 O.2    24  ALA24      -0.2718
     57  CB        48.0750    7.6500   24.2340 C.3    24  ALA24       0.0304
     58  N         48.1910    6.2750   26.9480 N.am   25  PHE25      -0.1976
     59  CA        48.6680    5.2110   27.8260 C.3    25  PHE25       0.1639
     60  C         47.5370    4.6260   28.6890 C.2    25  PHE25       0.2290
     61  O         47.5040    3.4200   28.9400 O.2    25  PHE25      -0.2864
     62  CB        49.7910    5.7380   28.7220 C.3    25  PHE25       0.0560
     63  CG        51.1540    5.6840   28.0840 C.ar   25  PHE25      -0.0200
     64  CD1       51.5950    4.5300   27.4440 C.ar   25  PHE25      -0.0042
     65  CD2       52.0000    6.7900   28.1200 C.ar   25  PHE25      -0.0042
     66  CE1       52.8600    4.4780   26.8480 C.ar   25  PHE25      -0.0003
     67  CE2       53.2670    6.7460   27.5250 C.ar   25  PHE25      -0.0003
     68  CZ        53.6940    5.5880   26.8890 C.ar   25  PHE25      -0.0000
     69  N         58.3680   10.0920   28.7500 N.3    44  VAL44      -0.1245
     70  CA        58.1630   10.3710   27.3470 C.3    44  VAL44       0.1561
     71  C         58.3440   11.8590   27.0670 C.2    44  VAL44       0.2260
     72  O         59.0150   12.2290   26.1110 O.2    44  VAL44      -0.2867
     73  CB        56.7530    9.9590   26.9160 C.3    44  VAL44       0.0252
     74  CG1       56.4680   10.4730   25.5220 C.3    44  VAL44       0.0019
     75  CG2       56.6110    8.4460   26.9900 C.3    44  VAL44       0.0019
     76  N         61.8330   12.7120   27.1360 N.3    47  PHE47      -0.1241
     77  CA        62.4480   12.2360   25.9040 C.3    47  PHE47       0.1605
     78  C         62.1280   13.2030   24.7650 C.2    47  PHE47       0.2264
     79  O         63.0210   13.6680   24.0660 O.2    47  PHE47      -0.2867
     80  CB        61.9200   10.8440   25.5640 C.3    47  PHE47       0.0534
     81  CG        62.3440   10.3440   24.2160 C.ar   47  PHE47      -0.0203
     82  CD1       63.6210    9.8330   24.0180 C.ar   47  PHE47      -0.0042
     83  CD2       61.4530   10.3510   23.1480 C.ar   47  PHE47      -0.0042
     84  CE1       64.0010    9.3320   22.7730 C.ar   47  PHE47      -0.0003
     85  CE2       61.8200    9.8530   21.9000 C.ar   47  PHE47      -0.0003
     86  CZ        63.0930    9.3430   21.7130 C.ar   47  PHE47      -0.0000
     87  N         56.2900    6.9160   16.0360 N.3    64  LEU64      -0.1245
     88  CA        55.4700    7.0690   17.2420 C.3    64  LEU64       0.1561
     89  C         55.0060    5.6950   17.7190 C.2    64  LEU64       0.2260
     90  O         55.0090    5.4130   18.9180 O.2    64  LEU64      -0.2867
     91  CB        54.2580    7.9670   16.9720 C.3    64  LEU64       0.0270
     92  CG        54.5750    9.4580   16.8140 C.3    64  LEU64       0.0019
     93  CD1       53.2870   10.2330   16.6540 C.3    64  LEU64       0.0001
     94  CD2       55.3630    9.9610   18.0190 C.3    64  LEU64       0.0001
     95  N         57.9940    4.0170   19.4630 N.3    67  LEU67      -0.1231
     96  CA        58.2920    4.6160   20.7550 C.3    67  LEU67       0.1693
     97  C         57.1930    4.2390   21.7450 C.2    67  LEU67       0.2592
     98  O         57.4710    3.7330   22.8260 O.2    67  LEU67      -0.2718
     99  CB        58.3880    6.1350   20.6170 C.3    67  LEU67       0.0284
    100  CG        59.5100    6.6360   19.7020 C.3    67  LEU67       0.0019
    101  CD1       59.4580    8.1540   19.6230 C.3    67  LEU67       0.0001
    102  CD2       60.8650    6.1660   20.2210 C.3    67  LEU67       0.0001
    103  N         55.9450    4.4790   21.3640 N.am   68  PHE68      -0.1976
    104  CA        54.8210    4.1500   22.2230 C.3    68  PHE68       0.1639
    105  C         54.8980    2.6830   22.6470 C.2    68  PHE68       0.2290
    106  O         55.0240    2.3750   23.8320 O.2    68  PHE68      -0.2864
    107  CB        53.5140    4.4240   21.4850 C.3    68  PHE68       0.0560
    108  CG        52.2920    4.0100   22.2440 C.ar   68  PHE68      -0.0200
    109  CD1       51.8200    4.7760   23.3110 C.ar   68  PHE68      -0.0042
    110  CD2       51.6040    2.8500   21.8940 C.ar   68  PHE68      -0.0042
    111  CE1       50.6750    4.3890   24.0200 C.ar   68  PHE68      -0.0003
    112  CE2       50.4580    2.4530   22.5940 C.ar   68  PHE68      -0.0003
    113  CZ        49.9950    3.2250   23.6580 C.ar   68  PHE68      -0.0000
    114  N         57.6690    1.8660   25.0270 N.3    71  LYS71      -0.1245
    115  CA        57.4300    2.3170   26.3940 C.3    71  LYS71       0.1561
    116  C         56.4530    1.3800   27.0950 C.2    71  LYS71       0.2260
    117  O         56.6660    0.9840   28.2420 O.2    71  LYS71      -0.2867
    118  CB        56.8730    3.7440   26.3880 C.3    71  LYS71       0.0271
    119  CG        57.8980    4.8080   26.7580 C.3    71  LYS71       0.0035
    120  CD        58.0350    4.9480   28.2610 C.3    71  LYS71       0.0206
    121  CE        59.4640    4.7140   28.7040 C.3    71  LYS71       0.1093
    122  NZ        60.1810    5.9990   28.8920 N.3    71  LYS71      -0.1314
    123  N         38.0690    8.7670   20.9600 N.3   148  TYR148     -0.1241
    124  CA        39.1460    9.5170   20.3250 C.3   148  TYR148      0.1605
    125  C         39.8440   10.4770   21.2910 C.2   148  TYR148      0.2264
    126  O         39.2560   11.4790   21.7000 O.2   148  TYR148     -0.2867
    127  CB        38.5910   10.2960   19.1240 C.3   148  TYR148      0.0534
    128  CG        39.6630   10.8860   18.2480 C.ar  148  TYR148     -0.0201
    129  CD1       40.7690   10.1240   17.8720 C.ar  148  TYR148     -0.0009
    130  CD2       39.6110   12.2230   17.8530 C.ar  148  TYR148     -0.0009
    131  CE1       41.8010   10.6710   17.1370 C.ar  148  TYR148      0.0417
    132  CE2       40.6450   12.7870   17.1100 C.ar  148  TYR148      0.0417
    133  CZ        41.7410   12.0020   16.7590 C.ar  148  TYR148      0.1957
    134  OH        42.7920   12.5490   16.0550 O.3   148  TYR148     -0.2866
    135  N         41.9650   13.1540   21.3270 N.3   150  PRO150     -0.2116
    136  CA        41.6500   14.5820   21.1930 C.3   150  PRO150      0.1372
    137  C         40.2480   15.0580   21.5240 C.2   150  PRO150      0.2244
    138  O         40.0930   16.1130   22.1260 O.2   150  PRO150     -0.2868
    139  CB        42.0660   14.8970   19.7630 C.3   150  PRO150      0.0268
    140  CG        43.1870   13.9570   19.5310 C.3   150  PRO150      0.0207
    141  CD        42.8610   12.6880   20.2510 C.3   150  PRO150      0.0892
    142  N         44.8570    4.9790   17.4750 N.3   248  LEU248     -0.1231
    143  CA        44.8450    6.4220   17.6480 C.3   248  LEU248      0.1693
    144  C         45.8010    7.1750   16.7320 C.2   248  LEU248      0.2591
    145  O         45.4100    8.1560   16.1050 O.2   248  LEU248     -0.2718
    146  CB        45.1460    6.7800   19.1090 C.3   248  LEU248      0.0284
    147  CG        45.4270    8.2600   19.3870 C.3   248  LEU248      0.0019
    148  CD1       44.1590    9.0760   19.1730 C.3   248  LEU248      0.0001
    149  CD2       45.9560    8.4250   20.7960 C.3   248  LEU248      0.0001
    150  N         47.0480    6.7210   16.6510 N.am  249  LEU249     -0.1980
    151  CA        48.0420    7.3940   15.8230 C.3   249  LEU249      0.1596
    152  C         47.6570    7.4700   14.3470 C.2   249  LEU249      0.2287
    153  O         47.6150    8.5540   13.7640 O.2   249  LEU249     -0.2864
    154  CB        49.4000    6.7130   15.9820 C.3   249  LEU249      0.0297
    155  CG        50.0670    6.9000   17.3480 C.3   249  LEU249      0.0022
    156  CD1       51.4730    6.3120   17.3190 C.3   249  LEU249      0.0001
    157  CD2       50.1030    8.3780   17.7080 C.3   249  LEU249      0.0001
    158  N         44.7030    9.6560   13.9570 N.3   252  ALA252     -0.1231
    159  CA        45.0250   11.0570   14.1750 C.3   252  ALA252      0.1694
    160  C         45.6250   11.6400   12.9030 C.2   252  ALA252      0.2592
    161  O         45.1870   12.6820   12.4110 O.2   252  ALA252     -0.2718
    162  CB        46.0090   11.1870   15.3250 C.3   252  ALA252      0.0304
    163  N         46.6320   10.9540   12.3750 N.am  253  ASP253     -0.1974
    164  CA        47.3000   11.3800   11.1520 C.3   253  ASP253      0.1709
    165  C         46.2990   11.5660   10.0190 C.2   253  ASP253      0.2293
    166  O         46.2590   12.6160    9.3760 O.2   253  ASP253     -0.2864
    167  CB        48.3450   10.3450   10.7400 C.3   253  ASP253      0.1436
    168  CG        49.6790   10.5640   11.4220 C.2   253  ASP253      0.3671
    169  OD1       49.8140   11.5710   12.1550 O.co2 253  ASP253     -0.2456
    170  OD2       50.5920    9.7310   11.2240 O.co2 253  ASP253     -0.2456
    171  N         43.1800   12.1010   10.1200 N.3   255  ARG255     -0.1231
    172  CA        42.2900   13.2320   10.3760 C.3   255  ARG255      0.1694
    173  C         43.0170   14.5470   10.1380 C.2   255  ARG255      0.2591
    174  O         42.4540   15.4860    9.5810 O.2   255  ARG255     -0.2718
    175  CB        41.7850   13.2010   11.8150 C.3   255  ARG255      0.0321
    176  CG        40.5310   12.3880   12.0270 C.3   255  ARG255      0.0489
    177  CD        40.2760   12.2040   13.5100 C.3   255  ARG255      0.2205
    178  NE        38.9370   12.6320   13.9120 N.pl3 255  ARG255     -0.0865
    179  CZ        38.6380   13.8510   14.3450 C.cat 255  ARG255      0.5346
    180  NH1       39.5850   14.7750   14.4250 N.pl3 255  ARG255      0.1354
    181  NH2       37.3960   14.1460   14.7040 N.pl3 255  ARG255      0.1354
    182  N         44.2670   14.6130   10.5770 N.am  256  ALA256     -0.1980
    183  CA        45.0590   15.8170   10.4030 C.3   256  ALA256      0.1597
    184  C         45.1520   16.1210    8.9120 C.2   256  ALA256      0.2287
    185  O         44.9560   17.2650    8.4900 O.2   256  ALA256     -0.2864
    186  CB        46.4500   15.6200   10.9950 C.3   256  ALA256      0.0319
    187  N         41.9130   17.2410    7.3340 N.3   259  ALA259     -0.1245
    188  CA        41.6470   18.5980    7.7780 C.3   259  ALA259      0.1562
    189  C         42.4340   19.5890    6.9100 C.2   259  ALA259      0.2260
    190  O         41.8790   20.5760    6.4150 O.2   259  ALA259     -0.2867
    191  CB        42.0320   18.7500    9.2560 C.3   259  ALA259      0.0290
    192  N         46.1770   22.9810   15.2600 N.3   281  LEU281     -0.1231
    193  CA        46.1990   21.5820   14.8520 C.3   281  LEU281      0.1693
    194  C         45.1550   20.6820   15.5210 C.2   281  LEU281      0.2591
    195  O         44.3140   20.0870   14.8500 O.2   281  LEU281     -0.2718
    196  CB        47.5960   21.0170   15.1000 C.3   281  LEU281      0.0284
    197  CG        47.7670   19.5110   14.9380 C.3   281  LEU281      0.0019
    198  CD1       47.5760   19.1110   13.4780 C.3   281  LEU281      0.0001
    199  CD2       49.1480   19.1190   15.4200 C.3   281  LEU281      0.0001
    200  N         45.2110   20.5920   16.8430 N.am  282  LEU282     -0.1980
    201  CA        44.3000   19.7520   17.6100 C.3   282  LEU282      0.1596
    202  C         42.8020   19.9460   17.3870 C.2   282  LEU282      0.2287
    203  O         42.0590   18.9700   17.3360 O.2   282  LEU282     -0.2864
    204  CB        44.5990   19.9130   19.1020 C.3   282  LEU282      0.0297
    205  CG        44.5000   18.6590   19.9670 C.3   282  LEU282      0.0022
    206  CD1       45.6760   17.7520   19.6810 C.3   282  LEU282      0.0001
    207  CD2       44.4780   19.0530   21.4320 C.3   282  LEU282      0.0001
    208  N         41.2920   21.5190   14.6830 N.3   284  LYS284     -0.1231
    209  CA        40.8930   21.6710   13.2870 C.3   284  LYS284      0.1693
    210  C         39.8210   20.6980   12.8120 C.2   284  LYS284      0.2592
    211  O         38.7150   21.1230   12.4630 O.2   284  LYS284     -0.2718
    212  CB        42.1170   21.5800   12.3730 C.3   284  LYS284      0.0285
    213  CG        42.8630   22.9010   12.2280 C.3   284  LYS284      0.0035
    214  CD        43.0990   23.2670   10.7770 C.3   284  LYS284      0.0206
    215  CE        44.5240   23.7600   10.5710 C.3   284  LYS284      0.1093
    216  NZ        45.4760   22.6190   10.4440 N.3   284  LYS284     -0.1314
    217  N         40.1360   19.4030   12.7900 N.am  285  SER285     -0.1952
    218  CA        39.1640   18.4050   12.3330 C.3   285  SER285      0.1924
    219  C         37.9110   18.3940   13.1920 C.2   285  SER285      0.2314
    220  O         36.8040   18.2200   12.6790 O.2   285  SER285     -0.2863
    221  CB        39.7780   16.9960   12.3040 C.3   285  SER285      0.2116
    222  OG        40.7640   16.8290   13.3020 O.3   285  SER285     -0.2180
@<TRIPOS>BOND
     1   190   189    2
     2   189   188    1
     3   187   188    1
     4   188   191    1
     5   185   184    2
     6   184   183    1
     7   166   165    2
     8   174   173    2
     9   165   164    1
    10   171   172    1
    11   173   172    1
    12   173   182   am
    13   172   175    1
    14   183   182    1
    15   183   186    1
    16   216   215    1
    17   215   214    1
    18   167   164    1
    19   167   168    1
    20   214   213    1
    21   164   163    1
    22   170   168   ar
    23   168   169   ar
    24   175   176    1
    25   176   177    1
    26   213   212    1
    27   221   218    1
    28   221   222    1
    29   218   217    1
    30   218   219    1
    31   212   209    1
    32   163   160   am
    33   161   160    2
    34   211   210    2
    35    18    16    1
    36   220   219    2
    37   217   210   am
    38   210   209    1
    39   160   159    1
    40   209   208    1
    41   198   197    1
    42   177   178    1
    43    16    17    1
    44    16    15    2
    45   153   152    2
    46   178   179    2
    47   158   159    1
    48   159   162    1
    49   179   180    1
    50   179   181    1
    51   152   151    1
    52    15    14    1
    53   195   194    2
    54   193   196    1
    55   193   192    1
    56   193   194    1
    57   197   196    1
    58   197   199    1
    59   194   200   am
    60   151   154    1
    61   151   150    1
    62    14    13    1
    63   154   155    1
    64    87    88    1
    65   134   133    1
    66   145   144    2
    67    13    12    1
    68   150   144   am
    69    93    92    1
    70     8     9    1
    71   144   143    1
    72   133   132   ar
    73   133   131   ar
    74    92    91    1
    75    92    94    1
    76   200   201    1
    77    91    88    1
    78   132   130   ar
    79   131   129   ar
    80     1     2    1
    81    88    89    1
    82     9    12    1
    83     9    10    1
    84   156   155    1
    85   203   202    2
    86   155   157    1
    87   202   201    1
    88   142   143    1
    89   201   204    1
    90   143   146    1
    91    89    90    2
    92   130   128   ar
    93   129   128   ar
    94   128   127    1
    95     2     3    1
    96     2     5    1
    97    10    11    2
    98     3     4    2
    99    19    20    1
   100    25    24    1
   101   204   205    1
   102   146   147    1
   103   127   124    1
   104   148   147    1
   105   147   149    1
   106     7     5    1
   107    95    96    1
   108   140   139    1
   109   140   141    1
   110   101   100    1
   111   206   205    1
   112     5     6    1
   113   100   102    1
   114   100    99    1
   115   139   136    1
   116    26    24    1
   117   205   207    1
   118    20    23    1
   119    20    21    1
   120    24    23    1
   121   141   135    1
   122   124   123    1
   123   124   125    1
   124    99    96    1
   125    96    97    1
   126   136   135    1
   127   136   137    1
   128    21    22    2
   129   125   126    2
   130   103    97   am
   131   103   104    1
   132   107   104    1
   133   107   108    1
   134   137   138    2
   135    86    85   ar
   136    86    84   ar
   137    97    98    2
   138   110   108   ar
   139   110   112   ar
   140    85    83   ar
   141    44    43    1
   142   104   105    1
   143   108   109   ar
   144    35    33   ar
   145    35    37   ar
   146   112   113   ar
   147   105   106    2
   148    33    32   ar
   149    84    82   ar
   150    45    43    1
   151    83    81   ar
   152   109   111   ar
   153    43    42    1
   154    37    36   ar
   155   113   111   ar
   156    42    39    1
   157    32    31    1
   158    32    34   ar
   159    82    81   ar
   160    79    78    2
   161    81    80    1
   162    57    54    1
   163    31    28    1
   164    28    27    1
   165    28    29    1
   166    36    34   ar
   167    78    77    1
   168   114   115    1
   169    54    53    1
   170    54    55    1
   171    39    40    1
   172    39    38    1
   173    52    50    1
   174    41    40    2
   175    74    73    1
   176    40    46   am
   177    80    77    1
   178    30    29    2
   179    56    55    2
   180    77    76    1
   181    46    47    1
   182    55    58   am
   183    72    71    2
   184    47    50    1
   185    47    48    1
   186   118   115    1
   187   118   119    1
   188   115   116    1
   189    50    51    1
   190   119   120    1
   191    66    68   ar
   192    66    64   ar
   193    68    67   ar
   194    73    75    1
   195    73    70    1
   196    58    59    1
   197    71    70    1
   198   116   117    2
   199    70    69    1
   200    48    49    2
   201    64    63   ar
   202    67    65   ar
   203    59    60    1
   204    59    62    1
   205    63    65   ar
   206    63    62    1
   207   120   121    1
   208    60    61    2
   209   121   122    1
