@<TRIPOS>MOLECULE
tmp/1e7hA03.pdb
 198 183 0 0 0
SMALL
GASTEIGER

@<TRIPOS>ATOM
      1  N          4.9200   12.8420   11.9240 N.3   385  LEU385     -0.1245
      2  CA         5.3070   12.2900   13.2150 C.3   385  LEU385      0.1561
      3  C          5.9090   13.4000   14.0580 C.2   385  LEU385      0.2260
      4  O          5.6310   13.4960   15.2480 O.2   385  LEU385     -0.2867
      5  CB         6.3280   11.1650   13.0450 C.3   385  LEU385      0.0270
      6  CG         5.7700    9.7640   12.7810 C.3   385  LEU385      0.0019
      7  CD1        6.7610    8.7210   13.2780 C.3   385  LEU385      0.0001
      8  CD2        4.4230    9.6050   13.4660 C.3   385  LEU385      0.0001
      9  N          4.0640   14.9350   17.4530 N.3   389  ASN389     -0.1240
     10  CA         4.7310   14.8840   18.7450 C.3   389  ASN389      0.1653
     11  C          5.1770   16.2040   19.3510 C.2   389  ASN389      0.2266
     12  O          5.3630   16.2880   20.5620 O.2   389  ASN389     -0.2867
     13  CB         5.9120   13.9160   18.6820 C.3   389  ASN389      0.1155
     14  CG         5.4860   12.4790   18.8990 C.2   389  ASN389      0.2627
     15  OD1        5.9700   11.8070   19.8020 O.2   389  ASN389     -0.2716
     16  ND2        4.5640   12.0050   18.0730 N.am  389  ASN389     -0.0877
     17  N          2.1780    4.9190   25.8500 N.3   408  ARG408     -0.1231
     18  CA         2.2020    4.5240   24.4450 C.3   408  ARG408      0.1694
     19  C          3.0820    3.3240   24.1510 C.2   408  ARG408      0.2592
     20  O          2.6340    2.3580   23.5480 O.2   408  ARG408     -0.2718
     21  CB         2.6700    5.7020   23.5920 C.3   408  ARG408      0.0321
     22  CG         2.7550    5.4050   22.1090 C.3   408  ARG408      0.0489
     23  CD         2.5580    6.6670   21.2970 C.3   408  ARG408      0.2205
     24  NE         3.8360    7.2000   20.8520 N.pl3 408  ARG408     -0.0865
     25  CZ         4.0970    8.4960   20.7140 C.cat 408  ARG408      0.5346
     26  NH1        3.1630    9.3980   20.9910 N.pl3 408  ARG408      0.1354
     27  NH2        5.2960    8.8880   20.2970 N.pl3 408  ARG408      0.1354
     28  N          4.3330    3.3890   24.5780 N.am  409  TYR409     -0.1976
     29  CA         5.2760    2.3090   24.3340 C.3   409  TYR409      0.1639
     30  C          5.0800    1.0770   25.2190 C.2   409  TYR409      0.2290
     31  O          5.2920   -0.0470   24.7710 O.2   409  TYR409     -0.2864
     32  CB         6.7080    2.8560   24.4510 C.3   409  TYR409      0.0560
     33  CG         6.9940    3.9090   23.3990 C.ar  409  TYR409     -0.0198
     34  CD1        6.7500    3.6500   22.0420 C.ar  409  TYR409     -0.0009
     35  CD2        7.4210    5.1910   23.7550 C.ar  409  TYR409     -0.0009
     36  CE1        6.9020    4.6370   21.0730 C.ar  409  TYR409      0.0417
     37  CE2        7.5840    6.1900   22.7870 C.ar  409  TYR409      0.0417
     38  CZ         7.3160    5.9090   21.4500 C.ar  409  TYR409      0.1957
     39  OH         7.4380    6.8890   20.4910 O.3   409  TYR409     -0.2866
     40  N          2.8070   -1.0500   23.5600 N.3   412  LYS412     -0.1231
     41  CA         3.2830   -1.6560   22.3230 C.3   412  LYS412      0.1693
     42  C          4.1740   -2.8440   22.5960 C.2   412  LYS412      0.2591
     43  O          4.0820   -3.8610   21.9170 O.2   412  LYS412     -0.2718
     44  CB         4.0600   -0.6340   21.4930 C.3   412  LYS412      0.0285
     45  CG         3.2780    0.6190   21.2080 C.3   412  LYS412      0.0035
     46  CD         3.1090    0.8350   19.7330 C.3   412  LYS412      0.0206
     47  CE         3.5460    2.2320   19.3480 C.3   412  LYS412      0.1093
     48  NZ         2.8580    2.6920   18.1120 N.3   412  LYS412     -0.1314
     49  N          5.0410   -2.7020   23.5900 N.am  413  VAL413     -0.1980
     50  CA         5.9730   -3.7570   23.9630 C.3   413  VAL413      0.1595
     51  C          5.9890   -3.9230   25.4880 C.2   413  VAL413      0.2287
     52  O          6.9700   -3.5800   26.1590 O.2   413  VAL413     -0.2864
     53  CB         7.4060   -3.4270   23.4650 C.3   413  VAL413      0.0276
     54  CG1        8.2940   -4.6430   23.6130 C.3   413  VAL413      0.0022
     55  CG2        7.3700   -2.9840   22.0110 C.3   413  VAL413      0.0022
     56  N          8.8010   -5.5910   27.9480 N.3   416  VAL416     -0.1245
     57  CA        10.0280   -4.8920   28.3020 C.3   416  VAL416      0.1561
     58  C         10.0940   -4.5530   29.7880 C.2   416  VAL416      0.2260
     59  O          9.0750   -4.2890   30.4230 O.2   416  VAL416     -0.2867
     60  CB        10.1760   -3.5890   27.4900 C.3   416  VAL416      0.0252
     61  CG1       11.4320   -2.8340   27.9240 C.3   416  VAL416      0.0019
     62  CG2       10.2330   -3.9160   26.0190 C.3   416  VAL416      0.0019
     63  N         13.4510   -0.0810   32.1040 N.3   420  THR420     -0.1203
     64  CA        13.9640    0.1690   30.7600 C.3   420  THR420      0.1994
     65  C         12.9750    1.0760   30.0470 C.2   420  THR420      0.2617
     66  O         13.3610    2.0700   29.4240 O.2   420  THR420     -0.2717
     67  CB        14.1160   -1.1470   29.9640 C.3   420  THR420      0.1784
     68  OG1       15.3300   -1.7990   30.3520 O.3   420  THR420     -0.2211
     69  CG2       14.1640   -0.8730   28.4710 C.3   420  THR420      0.0376
     70  N         11.6980    0.7220   30.1530 N.am  421  LEU421     -0.1979
     71  CA        10.6320    1.4910   29.5420 C.3   421  LEU421      0.1596
     72  C         10.6260    2.9100   30.0940 C.2   421  LEU421      0.2287
     73  O         10.2100    3.8530   29.4210 O.2   421  LEU421     -0.2864
     74  CB         9.2880    0.8340   29.8250 C.3   421  LEU421      0.0297
     75  CG         8.9040   -0.2990   28.8820 C.3   421  LEU421      0.0022
     76  CD1        7.8330   -1.1500   29.5150 C.3   421  LEU421      0.0001
     77  CD2        8.4190    0.2760   27.5700 C.3   421  LEU421      0.0001
     78  N         13.8580    4.7520   28.4560 N.3   424  VAL424     -0.1245
     79  CA        13.6360    5.1280   27.0670 C.3   424  VAL424      0.1561
     80  C         12.6510    6.2750   26.9480 C.2   424  VAL424      0.2260
     81  O         12.9640    7.2950   26.3340 O.2   424  VAL424     -0.2867
     82  CB        13.1470    3.9290   26.2090 C.3   424  VAL424      0.0252
     83  CG1       14.0360    2.7350   26.4650 C.3   424  VAL424      0.0019
     84  CG2       11.7010    3.5870   26.5230 C.3   424  VAL424      0.0019
     85  N         13.4670    9.7960   25.2000 N.3   428  LEU428     -0.1245
     86  CA        12.6540   10.2630   24.0900 C.3   428  LEU428      0.1561
     87  C         12.0090   11.6090   24.4060 C.2   428  LEU428      0.2260
     88  O         11.8640   12.4570   23.5240 O.2   428  LEU428     -0.2867
     89  CB        11.5810    9.2260   23.7560 C.3   428  LEU428      0.0270
     90  CG        11.7940    8.4140   22.4730 C.3   428  LEU428      0.0019
     91  CD1       13.2740    8.1480   22.2390 C.3   428  LEU428      0.0001
     92  CD2       11.0350    7.1080   22.5850 C.3   428  LEU428      0.0001
     93  N         17.4610   10.3250   18.1120 N.3   451  LEU451     -0.1245
     94  CA        16.8190    9.0220   18.0360 C.3   451  LEU451      0.1561
     95  C         17.8100    7.9200   17.6750 C.2   451  LEU451      0.2260
     96  O         17.8500    6.8790   18.3240 O.2   451  LEU451     -0.2867
     97  CB        15.7030    9.0570   16.9980 C.3   451  LEU451      0.0270
     98  CG        14.2610    8.8930   17.4760 C.3   451  LEU451      0.0019
     99  CD1       14.1250    9.2990   18.9400 C.3   451  LEU451      0.0001
    100  CD2       13.3650    9.7450   16.5930 C.3   451  LEU451      0.0001
    101  N         19.5490    6.6950   20.6530 N.3   454  VAL454     -0.1231
    102  CA        18.6010    6.0630   21.5540 C.3   454  VAL454      0.1692
    103  C         18.2020    4.7060   21.0000 C.2   454  VAL454      0.2591
    104  O         18.2000    3.7110   21.7210 O.2   454  VAL454     -0.2718
    105  CB        17.3190    6.9150   21.7400 C.3   454  VAL454      0.0266
    106  CG1       16.2840    6.1320   22.5380 C.3   454  VAL454      0.0020
    107  CG2       17.6550    8.2070   22.4500 C.3   454  VAL454      0.0020
    108  N         17.8740    4.6790   19.7120 N.am  455  LEU455     -0.1980
    109  CA        17.4460    3.4560   19.0550 C.3   455  LEU455      0.1596
    110  C         18.5450    2.4180   19.0040 C.2   455  LEU455      0.2287
    111  O         18.2790    1.2210   19.0480 O.2   455  LEU455     -0.2864
    112  CB        16.9470    3.7610   17.6450 C.3   455  LEU455      0.0297
    113  CG        15.4280    3.6830   17.4690 C.3   455  LEU455      0.0022
    114  CD1       14.7460    4.4070   18.6150 C.3   455  LEU455      0.0001
    115  CD2       15.0220    4.3050   16.1420 C.3   455  LEU455      0.0001
    116  N         18.9950    1.1980   22.6030 N.3   458  LEU458     -0.1245
    117  CA        17.8330    0.3520   22.7760 C.3   458  LEU458      0.1561
    118  C         18.0930   -1.0520   22.2380 C.2   458  LEU458      0.2260
    119  O         17.8570   -2.0460   22.9240 O.2   458  LEU458     -0.2867
    120  CB        16.6750    0.9750   22.0160 C.3   458  LEU458      0.0270
    121  CG        15.2680    0.5980   22.4290 C.3   458  LEU458      0.0019
    122  CD1       14.9530    1.2810   23.7370 C.3   458  LEU458      0.0001
    123  CD2       14.2910    1.0180   21.3450 C.3   458  LEU458      0.0001
    124  N         20.7010   -3.4590   24.1160 N.3   461  LEU461     -0.1231
    125  CA        20.1360   -4.1240   25.2860 C.3   461  LEU461      0.1693
    126  C         19.3720   -5.3470   24.8330 C.2   461  LEU461      0.2592
    127  O         19.6510   -6.4660   25.2560 O.2   461  LEU461     -0.2718
    128  CB        19.1690   -3.2080   26.0260 C.3   461  LEU461      0.0284
    129  CG        19.7310   -1.9340   26.6390 C.3   461  LEU461      0.0019
    130  CD1       18.5840   -1.1140   27.2020 C.3   461  LEU461      0.0001
    131  CD2       20.7420   -2.2800   27.7200 C.3   461  LEU461      0.0001
    132  N         18.3950   -5.1260   23.9690 N.am  462  HIS462     -0.1976
    133  CA        17.5970   -6.2260   23.4780 C.3   462  HIS462      0.1656
    134  C         18.4870   -7.3710   23.0220 C.2   462  HIS462      0.2291
    135  O         18.1300   -8.5410   23.1540 O.2   462  HIS462     -0.2864
    136  CB        16.7120   -5.7620   22.3300 C.3   462  HIS462      0.0771
    137  CG        15.4700   -6.5750   22.1800 C.ar  462  HIS462      0.0820
    138  ND1       15.2590   -7.4160   21.1120 N.ar  462  HIS462     -0.2267
    139  CD2       14.3850   -6.6980   22.9790 C.ar  462  HIS462      0.1154
    140  CE1       14.0950   -8.0250   21.2580 C.ar  462  HIS462      0.1986
    141  NE2       13.5450   -7.6050   22.3850 N.ar  462  HIS462     -0.2212
    142  N         19.5380   -9.2850   26.1600 N.3   465  THR465     -0.1218
    143  CA        18.3800   -9.8580   26.8270 C.3   465  THR465      0.1862
    144  C         17.1280   -9.7650   25.9780 C.2   465  THR465      0.2287
    145  O         16.2110   -9.0090   26.2910 O.2   465  THR465     -0.2866
    146  CB        18.1170   -9.1560   28.1770 C.3   465  THR465      0.1770
    147  OG1       18.0290   -7.7420   27.9690 O.3   465  THR465     -0.2211
    148  CG2       19.2450   -9.4390   29.1580 C.3   465  THR465      0.0375
    149  N         13.5580   -9.9920   24.2340 N.3   467  VAL467     -0.1245
    150  CA        12.2700   -9.9640   24.8980 C.3   467  VAL467      0.1561
    151  C         11.1370  -10.0280   23.8850 C.2   467  VAL467      0.2260
    152  O         10.0630  -10.5470   24.1840 O.2   467  VAL467     -0.2867
    153  CB        12.1450   -8.6890   25.7670 C.3   467  VAL467      0.0252
    154  CG1       10.6940   -8.3020   25.9480 C.3   467  VAL467      0.0019
    155  CG2       12.8030   -8.9320   27.1170 C.3   467  VAL467      0.0019
    156  N         10.8220   -6.3340   18.2420 N.3   471  VAL471     -0.1245
    157  CA        11.8960   -5.3800   18.4650 C.3   471  VAL471      0.1561
    158  C         13.1370   -5.8750   17.7270 C.2   471  VAL471      0.2260
    159  O         13.8490   -5.0930   17.0930 O.2   471  VAL471     -0.2867
    160  CB        12.2050   -5.2330   19.9760 C.3   471  VAL471      0.0252
    161  CG1       13.4250   -4.3450   20.1930 C.3   471  VAL471      0.0019
    162  CG2       11.0060   -4.6510   20.6820 C.3   471  VAL471      0.0019
    163  N         13.9470    2.9870   12.2660 N.3   483  ARG483     -0.1245
    164  CA        12.9710    3.8580   12.9100 C.3   483  ARG483      0.1563
    165  C         11.5460    3.6260   12.4300 C.2   483  ARG483      0.2260
    166  O         10.6410    3.4380   13.2360 O.2   483  ARG483     -0.2867
    167  CB        13.3560    5.3250   12.6980 C.3   483  ARG483      0.0307
    168  CG        12.7150    6.2800   13.6800 C.3   483  ARG483      0.0489
    169  CD        11.2840    6.5870   13.2770 C.3   483  ARG483      0.2205
    170  NE        11.2390    7.3450   12.0330 N.pl3 483  ARG483     -0.0865
    171  CZ        10.2470    7.2930   11.1490 C.cat 483  ARG483      0.5346
    172  NH1        9.1940    6.5140   11.3610 N.pl3 483  ARG483      0.1354
    173  NH2       10.3130    8.0220   10.0410 N.pl3 483  ARG483      0.1354
    174  N          9.9320    0.6820   14.0920 N.3   486  PHE486     -0.1227
    175  CA         9.4690    0.9240   15.4480 C.3   486  PHE486      0.1736
    176  C          8.1820    1.7240   15.4050 C.2   486  PHE486      0.2596
    177  O          7.2310    1.4130   16.1150 O.2   486  PHE486     -0.2718
    178  CB        10.5290    1.6800   16.2370 C.3   486  PHE486      0.0547
    179  CG        11.6300    0.8000   16.7540 C.ar  486  PHE486     -0.0202
    180  CD1       11.3950   -0.0840   17.8050 C.ar  486  PHE486     -0.0042
    181  CD2       12.9060    0.8530   16.1950 C.ar  486  PHE486     -0.0042
    182  CE1       12.4160   -0.9020   18.2960 C.ar  486  PHE486     -0.0003
    183  CE2       13.9410    0.0400   16.6750 C.ar  486  PHE486     -0.0003
    184  CZ        13.6940   -0.8400   17.7290 C.ar  486  PHE486     -0.0000
    185  N          8.1450    2.7440   14.5560 N.am  487  SER487     -0.1952
    186  CA         6.9550    3.5730   14.4290 C.3   487  SER487      0.1924
    187  C          5.7510    2.7370   14.0160 C.2   487  SER487      0.2314
    188  O          4.6040    3.1240   14.2610 O.2   487  SER487     -0.2863
    189  CB         7.1820    4.6750   13.3920 C.3   487  SER487      0.2116
    190  OG         8.2010    5.5620   13.8100 O.3   487  SER487     -0.2180
    191  N          5.2140   -0.4540   15.0330 N.3   489  LEU489     -0.1245
    192  CA         4.8320   -1.3870   16.0890 C.3   489  LEU489      0.1561
    193  C          3.4070   -1.0710   16.5100 C.2   489  LEU489      0.2260
    194  O          3.0060    0.0920   16.5550 O.2   489  LEU489     -0.2867
    195  CB         5.7610   -1.2520   17.2930 C.3   489  LEU489      0.0270
    196  CG         7.1340   -1.9150   17.1670 C.3   489  LEU489      0.0019
    197  CD1        7.9730   -1.6360   18.4060 C.3   489  LEU489      0.0001
    198  CD2        6.9560   -3.4060   16.9690 C.3   489  LEU489      0.0001
@<TRIPOS>BOND
     1   173   171    1
     2   171   172    1
     3   171   170    2
     4     1     2    1
     5   170   169    1
     6   163   164    1
     7   165   164    1
     8   165   166    2
     9   167   164    1
    10   167   168    1
    11     6     5    1
    12     6     7    1
    13     6     8    1
    14     5     2    1
    15     2     3    1
    16   169   168    1
    17   189   190    1
    18   189   186    1
    19   187   188    2
    20   187   186    1
    21     3     4    2
    22   174   175    1
    23   186   185    1
    24   185   176   am
    25   191   192    1
    26   176   175    1
    27   176   177    2
    28   175   178    1
    29   192   193    1
    30   192   195    1
    31   115   113    1
    32   181   183   ar
    33   181   179   ar
    34   178   179    1
    35   193   194    2
    36   100    98    1
    37   183   184   ar
    38   179   180   ar
    39   198   196    1
    40    97    98    1
    41    97    94    1
    42   159   158    2
    43   196   195    1
    44   196   197    1
    45     9    10    1
    46   113   112    1
    47   113   114    1
    48    98    99    1
    49   112   109    1
    50    95    94    1
    51    95    96    2
    52   158   157    1
    53   184   182   ar
    54   180   182   ar
    55    94    93    1
    56    16    14   am
    57    48    47    1
    58   156   157    1
    59   157   160    1
    60    13    10    1
    61    13    14    1
    62    10    11    1
    63    14    15    2
    64   110   111    2
    65   110   109    1
    66   109   108    1
    67    47    46    1
    68    11    12    2
    69   108   103   am
    70    46    45    1
    71   160   161    1
    72   160   162    1
    73    27    25    1
    74    39    38    1
    75   101   102    1
    76    25    24    2
    77    25    26    1
    78    24    23    1
    79   103   102    1
    80   103   104    2
    81    36    38   ar
    82    36    34   ar
    83   138   140   ar
    84   138   137   ar
    85    45    44    1
    86   140   141   ar
    87    23    22    1
    88   123   121    1
    89    38    37   ar
    90    44    41    1
    91   102   105    1
    92   105   107    1
    93   105   106    1
    94    43    42    2
    95    55    53    1
    96   120   121    1
    97   120   117    1
    98    34    33   ar
    99    22    21    1
   100   137   136    1
   101   137   139   ar
   102   118   117    1
   103   118   119    2
   104    91    90    1
   105    41    42    1
   106    41    40    1
   107   136   133    1
   108   141   139   ar
   109   121   122    1
   110    90    92    1
   111    90    89    1
   112    42    49   am
   113   116   117    1
   114    37    35   ar
   115   134   135    2
   116   134   133    1
   117    33    35   ar
   118    33    32    1
   119    53    54    1
   120    53    50    1
   121   133   132    1
   122    88    87    2
   123    20    19    2
   124    49    50    1
   125    21    18    1
   126    89    86    1
   127   151   152    2
   128   151   150    1
   129    50    51    1
   130   132   126   am
   131    86    87    1
   132    86    85    1
   133   124   125    1
   134    19    18    1
   135    19    28   am
   136   149   150    1
   137    29    32    1
   138    29    28    1
   139    29    30    1
   140    18    17    1
   141    31    30    2
   142   126   127    2
   143   126   125    1
   144   150   153    1
   145   125   128    1
   146    51    52    2
   147   153   154    1
   148   153   155    1
   149   144   145    2
   150   144   143    1
   151    62    60    1
   152   128   129    1
   153   142   143    1
   154    82    83    1
   155    82    84    1
   156    82    79    1
   157    81    80    2
   158   129   130    1
   159   129   131    1
   160   143   146    1
   161    80    79    1
   162    79    78    1
   163    60    61    1
   164    60    57    1
   165    77    75    1
   166    56    57    1
   167   147   146    1
   168   146   148    1
   169    57    58    1
   170    69    67    1
   171    75    76    1
   172    75    74    1
   173    73    72    2
   174    66    65    2
   175    71    74    1
   176    71    72    1
   177    71    70    1
   178    58    59    2
   179    67    68    1
   180    67    64    1
   181    65    70   am
   182    65    64    1
   183    64    63    1
