@<TRIPOS>MOLECULE
tmp/1e7iA02.pdb
 200 187 0 0 0
SMALL
GASTEIGER

@<TRIPOS>ATOM
      1  N         16.2910   14.4830    6.7190 N.3   340  SER340     -0.1217
      2  CA        17.2050   13.6640    7.5040 C.3   340  SER340      0.1889
      3  C         17.9480   12.7820    6.4930 C.2   340  SER340      0.2288
      4  O         17.3910   12.4250    5.4480 O.2   340  SER340     -0.2866
      5  CB        16.4260   12.7920    8.4870 C.3   340  SER340      0.2089
      6  OG        15.3160   12.1860    7.8470 O.3   340  SER340     -0.2183
      7  N         18.6290    9.6290    6.4610 N.3   342  VAL342     -0.1231
      8  CA        17.8750    8.4040    6.1620 C.3   342  VAL342      0.1692
      9  C         16.6790    8.6640    5.2670 C.2   342  VAL342      0.2591
     10  O         16.2400    7.7730    4.5480 O.2   342  VAL342     -0.2718
     11  CB        17.3220    7.7210    7.4290 C.3   342  VAL342      0.0266
     12  CG1       18.2320    6.6010    7.8370 C.3   342  VAL342      0.0020
     13  CG2       17.1610    8.7300    8.5460 C.3   342  VAL342      0.0020
     14  N         16.1250    9.8700    5.3410 N.am  343  LEU343     -0.1980
     15  CA        14.9760   10.2130    4.5090 C.3   343  LEU343      0.1596
     16  C         15.5010   10.3310    3.0860 C.2   343  LEU343      0.2287
     17  O         14.8750    9.8510    2.1370 O.2   343  LEU343     -0.2864
     18  CB        14.3370   11.5480    4.9390 C.3   343  LEU343      0.0297
     19  CG        13.2650   12.0480    3.9540 C.3   343  LEU343      0.0022
     20  CD1       12.2080   10.9730    3.7720 C.3   343  LEU343      0.0001
     21  CD2       12.6250   13.3360    4.4340 C.3   343  LEU343      0.0001
     22  N         16.2690    7.0810    1.7190 N.3   346  ARG346     -0.1245
     23  CA        15.0150    6.3910    1.4290 C.3   346  ARG346      0.1563
     24  C         14.5040    6.7690    0.0330 C.2   346  ARG346      0.2260
     25  O         13.8580    5.9690   -0.6490 O.2   346  ARG346     -0.2867
     26  CB        13.9560    6.7530    2.4810 C.3   346  ARG346      0.0307
     27  CG        13.6810    5.6680    3.5080 C.3   346  ARG346      0.0489
     28  CD        12.7000    6.1380    4.5970 C.3   346  ARG346      0.2205
     29  NE        13.2670    6.0080    5.9420 N.pl3 346  ARG346     -0.0865
     30  CZ        13.0980    6.8880    6.9280 C.cat 346  ARG346      0.5346
     31  NH1       12.3680    7.9800    6.7370 N.pl3 346  ARG346      0.1354
     32  NH2       13.6920    6.6890    8.0990 N.pl3 346  ARG346      0.1354
     33  N          7.6880   11.2810    8.0560 N.3   382  PRO382     -0.2116
     34  CA         8.3720   11.7660    9.2610 C.3   382  PRO382      0.1372
     35  C          7.9250   13.1750    9.6310 C.2   382  PRO382      0.2244
     36  O          8.0170   13.5860   10.7840 O.2   382  PRO382     -0.2868
     37  CB         9.8530   11.7090    8.8860 C.3   382  PRO382      0.0268
     38  CG         9.8700   11.8880    7.4130 C.3   382  PRO382      0.0207
     39  CD         8.5660   11.3290    6.8720 C.3   382  PRO382      0.0892
     40  N          4.6000   12.9670   11.7860 N.3   385  LEU385     -0.1231
     41  CA         4.9870   12.4530   13.1000 C.3   385  LEU385      0.1693
     42  C          5.6540   13.5180   13.9620 C.2   385  LEU385      0.2591
     43  O          5.4630   13.5540   15.1740 O.2   385  LEU385     -0.2718
     44  CB         5.9420   11.2630   12.9550 C.3   385  LEU385      0.0284
     45  CG         5.4560   10.0140   12.2170 C.3   385  LEU385      0.0019
     46  CD1        6.4040    8.8550   12.4780 C.3   385  LEU385      0.0001
     47  CD2        4.0620    9.6660   12.6730 C.3   385  LEU385      0.0001
     48  N          6.4440   14.3810   13.3330 N.am  386  ILE386     -0.1980
     49  CA         7.1350   15.4320   14.0570 C.3   386  ILE386      0.1595
     50  C          6.1770   16.5440   14.4820 C.2   386  ILE386      0.2287
     51  O          6.2670   17.0560   15.6000 O.2   386  ILE386     -0.2864
     52  CB         8.2740   16.0250   13.2030 C.3   386  ILE386      0.0276
     53  CG1        9.4510   15.0520   13.1740 C.3   386  ILE386      0.0022
     54  CG2        8.7450   17.3450   13.7830 C.3   386  ILE386      0.0022
     55  CD1       10.6100   15.5220   12.3280 C.3   386  ILE386      0.0001
     56  N          3.7520   15.2710   17.2140 N.3   389  ASN389     -0.1225
     57  CA         4.4740   15.0470   18.4630 C.3   389  ASN389      0.1785
     58  C          4.9870   16.2940   19.1670 C.2   389  ASN389      0.2597
     59  O          5.1060   16.3070   20.3890 O.2   389  ASN389     -0.2718
     60  CB         5.6360   14.0850   18.2390 C.3   389  ASN389      0.1169
     61  CG         5.2760   12.6630   18.5870 C.2   389  ASN389      0.2627
     62  OD1        5.8170   12.0880   19.5240 O.2   389  ASN389     -0.2716
     63  ND2        4.3510   12.0890   17.8340 N.am  389  ASN389     -0.0877
     64  N          5.3050   17.3390   18.4110 N.am  390  CYS390     -0.1970
     65  CA         5.7920   18.5640   19.0300 C.3   390  CYS390      0.1712
     66  C          4.6000   19.3790   19.5120 C.2   390  CYS390      0.2296
     67  O          4.6740   20.0460   20.5380 O.2   390  CYS390     -0.2864
     68  CB         6.6230   19.3840   18.0460 C.3   390  CYS390      0.0983
     69  SG         8.3570   18.8600   17.9100 S.3   390  CYS390     -0.0798
     70  N          4.5200   14.8450   29.0600 N.3   401  PHE401     -0.1241
     71  CA         4.7290   14.3110   27.7190 C.3   401  PHE401      0.1605
     72  C          5.3760   12.9400   27.9160 C.2   401  PHE401      0.2264
     73  O          4.9110   11.9380   27.3680 O.2   401  PHE401     -0.2867
     74  CB         5.6440   15.2520   26.9040 C.3   401  PHE401      0.0534
     75  CG         5.8960   14.7960   25.4740 C.ar  401  PHE401     -0.0203
     76  CD1        4.8330   14.5220   24.6060 C.ar  401  PHE401     -0.0042
     77  CD2        7.2010   14.6230   25.0050 C.ar  401  PHE401     -0.0042
     78  CE1        5.0680   14.0780   23.2920 C.ar  401  PHE401     -0.0003
     79  CE2        7.4440   14.1810   23.6970 C.ar  401  PHE401     -0.0003
     80  CZ         6.3760   13.9080   22.8400 C.ar  401  PHE401     -0.0000
     81  N          4.1370    9.1720   26.4440 N.3   405  LEU405     -0.1245
     82  CA         4.9380    8.1890   25.7250 C.3   405  LEU405      0.1561
     83  C          4.9050    6.8890   26.5140 C.2   405  LEU405      0.2260
     84  O          4.6530    5.8210   25.9610 O.2   405  LEU405     -0.2867
     85  CB         6.3930    8.6820   25.5710 C.3   405  LEU405      0.0270
     86  CG         6.6620    9.9750   24.7790 C.3   405  LEU405      0.0019
     87  CD1        8.1560   10.1920   24.6150 C.3   405  LEU405      0.0001
     88  CD2        5.9940    9.8990   23.4180 C.3   405  LEU405      0.0001
     89  N          1.9060    4.8990   25.8640 N.3   408  ARG408     -0.1231
     90  CA         1.9380    4.4920   24.4660 C.3   408  ARG408      0.1694
     91  C          2.8200    3.2780   24.1840 C.2   408  ARG408      0.2592
     92  O          2.3710    2.2980   23.5970 O.2   408  ARG408     -0.2718
     93  CB         2.4210    5.6630   23.6140 C.3   408  ARG408      0.0321
     94  CG         2.0160    5.5820   22.1610 C.3   408  ARG408      0.0489
     95  CD         2.0930    6.9470   21.5080 C.3   408  ARG408      0.2205
     96  NE         3.4620    7.2890   21.1440 N.pl3 408  ARG408     -0.0865
     97  CZ         3.9060    8.5340   21.0020 C.cat 408  ARG408      0.5346
     98  NH1        3.0840    9.5540   21.1900 N.pl3 408  ARG408      0.1354
     99  NH2        5.1710    8.7570   20.6610 N.pl3 408  ARG408      0.1354
    100  N          4.0710    3.3430   24.6160 N.am  409  TYR409     -0.1976
    101  CA         5.0110    2.2660   24.3570 C.3   409  TYR409      0.1639
    102  C          4.8290    1.0290   25.2190 C.2   409  TYR409      0.2290
    103  O          5.0090   -0.0900   24.7360 O.2   409  TYR409     -0.2864
    104  CB         6.4460    2.8070   24.4560 C.3   409  TYR409      0.0560
    105  CG         6.7160    3.9160   23.4510 C.ar  409  TYR409     -0.0198
    106  CD1        6.2310    3.8270   22.1430 C.ar  409  TYR409     -0.0009
    107  CD2        7.3980    5.0760   23.8170 C.ar  409  TYR409     -0.0009
    108  CE1        6.4120    4.8620   21.2280 C.ar  409  TYR409      0.0417
    109  CE2        7.5850    6.1210   22.9050 C.ar  409  TYR409      0.0417
    110  CZ         7.0870    6.0050   21.6130 C.ar  409  TYR409      0.1957
    111  OH         7.2610    7.0220   20.6970 O.3   409  TYR409     -0.2866
    112  N         13.2610    9.9400   25.2930 N.3   428  LEU428     -0.1245
    113  CA        12.4750   10.3730   24.1450 C.3   428  LEU428      0.1561
    114  C         11.8580   11.7350   24.4290 C.2   428  LEU428      0.2260
    115  O         11.7590   12.5830   23.5410 O.2   428  LEU428     -0.2867
    116  CB        11.3620    9.3730   23.8550 C.3   428  LEU428      0.0270
    117  CG        11.7790    8.0890   23.1460 C.3   428  LEU428      0.0019
    118  CD1       10.5440    7.3600   22.6450 C.3   428  LEU428      0.0001
    119  CD2       12.7020    8.4200   21.9900 C.3   428  LEU428      0.0001
    120  N         14.2550   14.4340   23.8110 N.3   431  VAL431     -0.1231
    121  CA        14.4120   14.6740   22.3830 C.3   431  VAL431      0.1692
    122  C         13.3380   15.6540   21.9130 C.2   431  VAL431      0.2592
    123  O         13.5850   16.4900   21.0440 O.2   431  VAL431     -0.2718
    124  CB        14.3200   13.3550   21.5730 C.3   431  VAL431      0.0266
    125  CG1       14.4510   13.6400   20.0820 C.3   431  VAL431      0.0020
    126  CG2       15.4160   12.4010   22.0140 C.3   431  VAL431      0.0020
    127  N         12.1460   15.5590   22.4920 N.am  432  GLY432     -0.1957
    128  CA        11.0870   16.4730   22.1080 C.3   432  GLY432      0.1869
    129  C         11.3810   17.8540   22.6600 C.2   432  GLY432      0.2309
    130  O         10.9650   18.8710   22.1020 O.2   432  GLY432     -0.2863
    131  N         14.6330   19.1850   20.5460 N.3   435  CYS435     -0.1221
    132  CA        14.2160   19.4000   19.1690 C.3   435  CYS435      0.1808
    133  C         13.0170   20.2740   18.8440 C.2   435  CYS435      0.2601
    134  O         13.0630   21.0130   17.8670 O.2   435  CYS435     -0.2717
    135  CB        14.0320   18.0490   18.4720 C.3   435  CYS435      0.0970
    136  SG        15.5680   17.0730   18.3310 S.3   435  CYS435     -0.0800
    137  N         11.9420   20.2060   19.6180 N.am  436  CYS436     -0.1970
    138  CA        10.7730   21.0200   19.2800 C.3   436  CYS436      0.1712
    139  C         10.9910   22.5280   19.3930 C.2   436  CYS436      0.2296
    140  O         10.1730   23.3180   18.9250 O.2   436  CYS436     -0.2864
    141  CB         9.5690   20.5900   20.1160 C.3   436  CYS436      0.0983
    142  SG         9.0690   18.8620   19.8120 S.3   436  CYS436     -0.0798
    143  N         13.9580   20.6390   12.2610 N.3   443  ARG443     -0.1231
    144  CA        13.3920   19.6150   13.1380 C.3   443  ARG443      0.1694
    145  C         13.7300   18.1690   12.7660 C.2   443  ARG443      0.2591
    146  O         14.3070   17.4410   13.5810 O.2   443  ARG443     -0.2718
    147  CB        11.8770   19.7880   13.2210 C.3   443  ARG443      0.0321
    148  CG        11.4380   20.5320   14.4650 C.3   443  ARG443      0.0489
    149  CD        10.1090   21.2390   14.2660 C.3   443  ARG443      0.2205
    150  NE         9.7590   22.0330   15.4400 N.pl3 443  ARG443     -0.0865
    151  CZ         8.5190   22.3800   15.7730 C.cat 443  ARG443      0.5346
    152  NH1        7.5010   22.0010   15.0130 N.pl3 443  ARG443      0.1354
    153  NH2        8.3040   23.1070   16.8670 N.pl3 443  ARG443      0.1354
    154  N         13.3790   17.7550   11.5480 N.am  444  MET444     -0.1979
    155  CA        13.6520   16.3920   11.0860 C.3   444  MET444      0.1605
    156  C         15.1080   15.9860   11.2740 C.2   444  MET444      0.2287
    157  O         15.4040   14.8420   11.6280 O.2   444  MET444     -0.2864
    158  CB        13.2750   16.2420    9.6200 C.3   444  MET444      0.0413
    159  CG        13.5900   14.8760    9.0550 C.3   444  MET444      0.0598
    160  SD        12.3590   14.3100    7.8790 S.3   444  MET444     -0.1393
    161  CE        11.6200   15.8550    7.3200 C.3   444  MET444      0.0692
    162  N         15.6960   15.4340   15.1280 N.3   447  ALA447     -0.1231
    163  CA        15.0580   14.1820   15.5010 C.3   447  ALA447      0.1694
    164  C         15.9500   13.0040   15.1550 C.2   447  ALA447      0.2591
    165  O         16.2400   12.1580   16.0030 O.2   447  ALA447     -0.2718
    166  CB        13.7280   14.0540   14.7860 C.3   447  ALA447      0.0304
    167  N         16.3920   12.9550   13.9040 N.am  448  GLU448     -0.1979
    168  CA        17.2520   11.8750   13.4520 C.3   448  GLU448      0.1602
    169  C         18.4940   11.7180   14.3130 C.2   448  GLU448      0.2287
    170  O         18.8250   10.6120   14.7600 O.2   448  GLU448     -0.2864
    171  CB        17.6490   12.1050   11.9930 C.3   448  GLU448      0.0415
    172  CG        18.9560   11.4210   11.6020 C.3   448  GLU448      0.1163
    173  CD        19.3170   11.5950   10.1410 C.2   448  GLU448      0.3649
    174  OE1       19.4170   12.7550    9.6880 O.co2 448  GLU448     -0.2457
    175  OE2       19.5040   10.5690    9.4520 O.co2 448  GLU448     -0.2457
    176  N         17.1370   10.4100   17.9760 N.3   451  LEU451     -0.1245
    177  CA        16.4680    9.1190   17.9210 C.3   451  LEU451      0.1561
    178  C         17.4380    7.9960   17.5700 C.2   451  LEU451      0.2260
    179  O         17.3580    6.9010   18.1280 O.2   451  LEU451     -0.2867
    180  CB        15.3390    9.1590   16.8930 C.3   451  LEU451      0.0270
    181  CG        13.9080    9.3940   17.3770 C.3   451  LEU451      0.0019
    182  CD1       13.8970   10.0410   18.7520 C.3   451  LEU451      0.0001
    183  CD2       13.2030   10.2790   16.3730 C.3   451  LEU451      0.0001
    184  N         13.7860    3.0730   12.2660 N.3   483  ARG483     -0.1245
    185  CA        12.8580    3.9440   12.9790 C.3   483  ARG483      0.1563
    186  C         11.4270    3.7040   12.5170 C.2   483  ARG483      0.2260
    187  O         10.5250    3.5570   13.3270 O.2   483  ARG483     -0.2867
    188  CB        13.2330    5.4140   12.7510 C.3   483  ARG483      0.0307
    189  CG        12.6180    6.4100   13.7320 C.3   483  ARG483      0.0489
    190  CD        11.2020    6.8170   13.3300 C.3   483  ARG483      0.2205
    191  NE        11.1540    7.5260   12.0560 N.pl3 483  ARG483     -0.0865
    192  CZ        10.1830    7.3860   11.1570 C.cat 483  ARG483      0.5346
    193  NH1        9.1750    6.5590   11.3880 N.pl3 483  ARG483      0.1354
    194  NH2       10.2180    8.0740   10.0240 N.pl3 483  ARG483      0.1354
    195  N          8.0660    2.7680   14.5300 N.3   487  SER487     -0.1217
    196  CA         6.8800    3.6090   14.4010 C.3   487  SER487      0.1889
    197  C          5.6720    2.7690   14.0430 C.2   487  SER487      0.2288
    198  O          4.5430    3.1470   14.3250 O.2   487  SER487     -0.2866
    199  CB         7.0570    4.6480   13.2970 C.3   487  SER487      0.2089
    200  OG         8.1770    5.4660   13.5320 O.3   487  SER487     -0.2183
@<TRIPOS>BOND
     1    25    24    2
     2    24    23    1
     3    23    22    1
     4    23    26    1
     5    17    16    2
     6    26    27    1
     7    16    15    1
     8    27    28    1
     9    20    19    1
    10    19    21    1
    11    19    18    1
    12    15    18    1
    13    15    14    1
    14    10     9    2
    15    28    29    1
    16     9    14   am
    17     9     8    1
    18     4     3    2
    19    29    30    2
    20     8     7    1
    21     8    11    1
    22     3     2    1
    23     1     2    1
    24    31    30    1
    25    39    38    1
    26    39    33    1
    27    30    32    1
    28   161   160    1
    29    38    37    1
    30    11    12    1
    31    11    13    1
    32     2     5    1
    33     6     5    1
    34   160   159    1
    35    33    34    1
    36    37    34    1
    37   159   158    1
    38    34    35    1
    39   175   173   ar
    40   158   155    1
    41    35    36    2
    42   174   173   ar
    43   194   192    1
    44   173   172    1
    45   155   156    1
    46   155   154    1
    47   192   193    1
    48   192   191    2
    49   156   157    2
    50   154   145   am
    51   172   171    1
    52    40    41    1
    53   171   168    1
    54   191   190    1
    55    45    46    1
    56    45    47    1
    57    45    44    1
    58   143   144    1
    59   184   185    1
    60    55    53    1
    61   186   185    1
    62   186   187    2
    63   188   185    1
    64   188   189    1
    65   145   144    1
    66   145   146    2
    67    44    41    1
    68    41    42    1
    69   144   147    1
    70    53    52    1
    71    52    54    1
    72    52    49    1
    73   147   148    1
    74   199   200    1
    75   199   196    1
    76   190   189    1
    77    48    42   am
    78    48    49    1
    79   168   167    1
    80   168   169    1
    81   167   164   am
    82    42    43    2
    83   197   198    2
    84   197   196    1
    85    49    50    1
    86   149   148    1
    87   149   150    1
    88   169   170    2
    89   196   195    1
    90    50    51    2
    91   166   163    1
    92   152   151    1
    93   162   163    1
    94   164   163    1
    95   164   165    2
    96   150   151    2
    97   151   153    1
    98   183   181    1
    99   180   181    1
   100   180   177    1
   101    56    57    1
   102   181   182    1
   103   178   177    1
   104   178   179    2
   105    63    61   am
   106   134   133    2
   107    69    68    1
   108    69   142    1
   109   177   176    1
   110    68    65    1
   111    60    57    1
   112    60    61    1
   113   136   135    1
   114    64    65    1
   115    64    58   am
   116    57    58    1
   117   135   132    1
   118    61    62    2
   119   133   132    1
   120   133   137   am
   121   140   139    2
   122    65    66    1
   123    58    59    2
   124   132   131    1
   125   138   139    1
   126   138   137    1
   127   138   141    1
   128    66    67    2
   129   142   141    1
   130   125   124    1
   131    99    97    1
   132   111   110    1
   133    97    96    2
   134    97    98    1
   135   123   122    2
   136    96    95    1
   137   108   110   ar
   138   108   106   ar
   139    95    94    1
   140   124   126    1
   141   124   121    1
   142   110   109   ar
   143   122   121    1
   144   122   127   am
   145   119   117    1
   146   130   129    2
   147   128   127    1
   148   128   129    1
   149   106   105   ar
   150    94    93    1
   151   121   120    1
   152   118   117    1
   153    80    78   ar
   154    80    79   ar
   155   109   107   ar
   156   117   116    1
   157    78    76   ar
   158    88    86    1
   159   105   107   ar
   160   105   104    1
   161   115   114    2
   162    92    91    2
   163    93    90    1
   164    79    77   ar
   165   116   113    1
   166   113   114    1
   167   113   112    1
   168    91    90    1
   169    91   100   am
   170   101   104    1
   171   101   100    1
   172   101   102    1
   173    90    89    1
   174    76    75   ar
   175    87    86    1
   176   103   102    2
   177    86    85    1
   178    77    75   ar
   179    75    74    1
   180    85    82    1
   181    82    81    1
   182    82    83    1
   183    84    83    2
   184    74    71    1
   185    73    72    2
   186    71    72    1
   187    71    70    1
