@<TRIPOS>MOLECULE
tmp/1e7pD01.pdb
 98 92 0 0 0
SMALL
GASTEIGER

@<TRIPOS>ATOM
      1  N        -24.6080  -19.2540   34.0360 N.3    48  GLN48      -0.1231
      2  CA       -24.9030  -20.6580   33.7400 C.3    48  GLN48       0.1698
      3  C        -26.4010  -20.9540   33.5730 C.2    48  GLN48       0.2593
      4  O        -26.9340  -20.8920   32.4610 O.2    48  GLN48      -0.2718
      5  CB       -24.3240  -21.5570   34.8580 C.3    48  GLN48       0.0381
      6  CG       -22.8290  -21.3460   35.1890 C.3    48  GLN48       0.0905
      7  CD       -21.8700  -22.0650   34.2440 C.2    48  GLN48       0.2608
      8  OE1      -21.5860  -21.6050   33.1240 O.2    48  GLN48      -0.2717
      9  NE2      -21.3660  -23.2060   34.6980 N.am   48  GLN48      -0.0878
     10  N        -27.0540  -21.2810   34.6910 N.am   49  GLY49      -0.1942
     11  CA       -28.4750  -21.6050   34.7100 C.3    49  GLY49       0.2014
     12  C        -29.3670  -21.0000   33.6360 C.2    49  GLY49       0.2639
     13  O        -29.6860  -21.6520   32.6410 O.2    49  GLY49      -0.2714
     14  N        -29.7940  -19.7600   33.8390 N.am   50  GLY50      -0.1954
     15  CA       -30.6450  -19.1220   32.8570 C.3    50  GLY50       0.1869
     16  C        -31.3130  -17.8580   33.3500 C.2    50  GLY50       0.2309
     17  O        -30.9510  -17.2940   34.3890 O.2    50  GLY50      -0.2863
     18  N        -35.6850  -25.0000   38.1170 N.3   141  PHE141     -0.1241
     19  CA       -34.5700  -24.3640   38.8240 C.3   141  PHE141      0.1605
     20  C        -34.6890  -24.3260   40.3510 C.2   141  PHE141      0.2264
     21  O        -35.5910  -24.9330   40.9440 O.2   141  PHE141     -0.2867
     22  CB       -34.3330  -22.9470   38.2880 C.3   141  PHE141      0.0534
     23  CG       -32.8790  -22.6010   38.1350 C.ar  141  PHE141     -0.0203
     24  CD1      -32.0340  -23.4290   37.3980 C.ar  141  PHE141     -0.0042
     25  CD2      -32.3520  -21.4540   38.7210 C.ar  141  PHE141     -0.0042
     26  CE1      -30.6900  -23.1200   37.2450 C.ar  141  PHE141     -0.0003
     27  CE2      -31.0040  -21.1350   38.5730 C.ar  141  PHE141     -0.0003
     28  CZ       -30.1750  -21.9710   37.8330 C.ar  141  PHE141     -0.0000
     29  N        -23.7730  -19.8380   47.1290 N.3   257  HIS257     -0.1241
     30  CA       -24.1700  -20.9440   46.2500 C.3   257  HIS257      0.1621
     31  C        -23.5540  -22.2480   46.7690 C.2   257  HIS257      0.2264
     32  O        -22.3730  -22.3030   47.1210 O.2   257  HIS257     -0.2867
     33  CB       -23.7330  -20.6590   44.8070 C.3   257  HIS257      0.0745
     34  CG       -24.2680  -21.6310   43.7960 C.ar  257  HIS257      0.0817
     35  ND1      -23.5230  -22.6860   43.3070 N.ar  257  HIS257     -0.2268
     36  CD2      -25.4600  -21.6880   43.1580 C.ar  257  HIS257      0.1154
     37  CE1      -24.2330  -23.3480   42.4110 C.ar  257  HIS257      0.1986
     38  NE2      -25.4110  -22.7640   42.3010 N.ar  257  HIS257     -0.2212
     39  N        -18.0470  -21.8770   39.2630 N.3   267  LEU267     -0.1245
     40  CA       -19.4160  -22.3470   39.2910 C.3   267  LEU267      0.1561
     41  C        -19.6830  -23.6470   38.5610 C.2   267  LEU267      0.2260
     42  O        -19.0160  -24.0010   37.5880 O.2   267  LEU267     -0.2867
     43  CB       -20.3730  -21.2840   38.7430 C.3   267  LEU267      0.0270
     44  CG       -21.8420  -21.6920   38.9290 C.3   267  LEU267      0.0019
     45  CD1      -22.1590  -21.7450   40.4220 C.3   267  LEU267      0.0001
     46  CD2      -22.7680  -20.7270   38.2240 C.3   267  LEU267      0.0001
     47  N        -23.3650  -24.9810   37.6420 N.3   269  THR269     -0.1203
     48  CA       -24.8080  -24.7120   37.5680 C.3   269  THR269      0.1994
     49  C        -25.7720  -25.4710   38.4920 C.2   269  THR269      0.2617
     50  O        -25.4470  -26.5200   39.0710 O.2   269  THR269     -0.2717
     51  CB       -25.3180  -24.8760   36.1020 C.3   269  THR269      0.1784
     52  OG1      -26.7180  -24.5800   36.0370 O.3   269  THR269     -0.2211
     53  CG2      -25.0960  -26.2940   35.6120 C.3   269  THR269      0.0376
     54  N        -26.9720  -24.9050   38.6140 N.am  270  GLU270     -0.1979
     55  CA       -28.0630  -25.4670   39.4250 C.3   270  GLU270      0.1602
     56  C        -28.9010  -26.3400   38.4710 C.2   270  GLU270      0.2287
     57  O        -29.7580  -27.1350   38.9080 O.2   270  GLU270     -0.2864
     58  CB       -28.9230  -24.3350   40.0330 C.3   270  GLU270      0.0415
     59  CG       -29.7680  -24.7300   41.2520 C.3   270  GLU270      0.1163
     60  CD       -29.9550  -23.5740   42.2570 C.2   270  GLU270      0.3649
     61  OE1      -30.3410  -23.8730   43.4220 O.co2 270  GLU270     -0.2457
     62  OE2      -29.7190  -22.3830   41.8880 O.co2 270  GLU270     -0.2457
     63  N        -30.8440  -20.7850   48.0820 N.3   301  ARG301     -0.1245
     64  CA       -29.4180  -20.8580   48.4130 C.3   301  ARG301      0.1563
     65  C        -29.2490  -21.0240   49.9290 C.2   301  ARG301      0.2260
     66  O        -28.7810  -22.0760   50.3920 O.2   301  ARG301     -0.2867
     67  CB       -28.6960  -19.5890   47.9540 C.3   301  ARG301      0.0307
     68  CG       -28.3080  -19.5800   46.4840 C.3   301  ARG301      0.0489
     69  CD       -29.5120  -19.7400   45.5760 C.3   301  ARG301      0.2205
     70  NE       -29.1340  -19.6670   44.1690 N.pl3 301  ARG301     -0.0865
     71  CZ       -29.9770  -19.8540   43.1580 C.cat 301  ARG301      0.5346
     72  NH1      -31.2510  -20.1280   43.3980 N.pl3 301  ARG301      0.1354
     73  NH2      -29.5430  -19.7660   41.9080 N.pl3 301  ARG301      0.1354
     74  N        -21.5360  -16.0140   46.0970 N.3   369  HIS369     -0.1241
     75  CA       -21.8510  -16.0420   44.6750 C.3   369  HIS369      0.1621
     76  C        -22.6260  -14.8200   44.1810 C.2   369  HIS369      0.2264
     77  O        -22.4280  -14.3810   43.0470 O.2   369  HIS369     -0.2867
     78  CB       -22.5920  -17.3620   44.3790 C.3   369  HIS369      0.0745
     79  CG       -23.4420  -17.3470   43.1460 C.ar  369  HIS369      0.0817
     80  ND1      -22.9280  -17.1610   41.8830 N.ar  369  HIS369     -0.2268
     81  CD2      -24.7790  -17.5080   42.9890 C.ar  369  HIS369      0.1154
     82  CE1      -23.9110  -17.2030   41.0010 C.ar  369  HIS369      0.1986
     83  NE2      -25.0450  -17.4110   41.6460 N.ar  369  HIS369     -0.2212
     84  N        -32.1090  -13.7740   46.8210 N.3   404  ARG404     -0.1245
     85  CA       -32.4610  -13.7210   45.4050 C.3   404  ARG404      0.1563
     86  C        -32.8830  -15.1080   44.9770 C.2   404  ARG404      0.2260
     87  O        -32.4200  -16.1050   45.5370 O.2   404  ARG404     -0.2867
     88  CB       -31.2620  -13.2880   44.5610 C.3   404  ARG404      0.0307
     89  CG       -31.2120  -13.9100   43.1590 C.3   404  ARG404      0.0489
     90  CD       -29.9360  -13.4960   42.4410 C.3   404  ARG404      0.2205
     91  NE       -29.6940  -14.2170   41.1940 N.pl3 404  ARG404     -0.0865
     92  CZ       -29.3690  -15.5060   41.1120 C.cat 404  ARG404      0.5346
     93  NH1      -29.2410  -16.2590   42.2060 N.pl3 404  ARG404      0.1354
     94  NH2      -29.1500  -16.0400   39.9200 N.pl3 404  ARG404      0.1354
     95  N        -31.9480  -17.5230   38.8690 N.3   407  GLY407     -0.1225
     96  CA       -32.4000  -17.1280   37.5470 C.3   407  GLY407      0.1811
     97  C        -33.1000  -15.7910   37.5120 C.2   407  GLY407      0.2280
     98  O        -33.7290  -15.4370   36.5130 O.2   407  GLY407     -0.2866
@<TRIPOS>BOND
     1     4     3    2
     2    13    12    2
     3    15    16    1
     4    15    14    1
     5     8     7    2
     6    16    17    2
     7     3     2    1
     8     3    10   am
     9    12    14   am
    10    12    11    1
    11     2     1    1
    12     2     5    1
    13     7     9   am
    14     7     6    1
    15    10    11    1
    16     5     6    1
    17    53    51    1
    18    52    51    1
    19    51    48    1
    20    98    97    2
    21    26    24   ar
    22    26    28   ar
    23    24    23   ar
    24    97    96    1
    25    96    95    1
    26    48    47    1
    27    48    49    1
    28    42    41    2
    29    28    27   ar
    30    18    19    1
    31    23    22    1
    32    23    25   ar
    33    46    44    1
    34    22    19    1
    35    56    57    2
    36    56    55    1
    37    49    54   am
    38    49    50    2
    39    41    40    1
    40    27    25   ar
    41    54    55    1
    42    43    44    1
    43    43    40    1
    44    19    20    1
    45    44    45    1
    46    39    40    1
    47    55    58    1
    48    94    92    1
    49    58    59    1
    50    20    21    2
    51    82    83   ar
    52    82    80   ar
    53    92    91    2
    54    92    93    1
    55    91    90    1
    56    59    60    1
    57    83    81   ar
    58    80    79   ar
    59    62    60   ar
    60    73    71    1
    61    60    61   ar
    62    38    37   ar
    63    38    36   ar
    64    37    35   ar
    65    90    89    1
    66    81    79   ar
    67    77    76    2
    68    79    78    1
    69    71    72    1
    70    71    70    2
    71    36    34   ar
    72    89    88    1
    73    35    34   ar
    74    34    33    1
    75    70    69    1
    76    76    75    1
    77    78    75    1
    78    88    85    1
    79    75    74    1
    80    33    30    1
    81    86    85    1
    82    86    87    2
    83    85    84    1
    84    69    68    1
    85    30    31    1
    86    30    29    1
    87    68    67    1
    88    31    32    2
    89    67    64    1
    90    63    64    1
    91    64    65    1
    92    65    66    2
