@<TRIPOS>MOLECULE
tmp/1e7uA00.pdb
 189 179 0 0 0
SMALL
GASTEIGER

@<TRIPOS>ATOM
      1  N         19.3290   64.1540   11.9210 N.3   592  MET592     -0.1245
      2  CA        19.6130   65.0750   13.0060 C.3   592  MET592      0.1570
      3  C         20.2760   66.3720   12.5500 C.2   592  MET592      0.2261
      4  O         21.0680   66.3780   11.6080 O.2   592  MET592     -0.2867
      5  CB        20.4920   64.3750   14.0380 C.3   592  MET592      0.0387
      6  CG        20.3760   64.9770   15.4300 C.3   592  MET592      0.0595
      7  SD        20.5610   63.7220   16.7240 S.3   592  MET592     -0.1393
      8  CE        19.4510   62.5060   16.1400 C.3   592  MET592      0.0692
      9  N         22.5860   67.7700   13.6430 N.3   594  SER594     -0.1202
     10  CA        23.9340   67.7050   14.2010 C.3   594  SER594      0.2020
     11  C         24.9620   67.8250   13.0850 C.2   594  SER594      0.2619
     12  O         24.6810   67.4960   11.9350 O.2   594  SER594     -0.2717
     13  CB        24.1290   66.3710   14.9470 C.3   594  SER594      0.2103
     14  OG        25.5010   66.0930   15.2230 O.3   594  SER594     -0.2182
     15  N         26.1590   68.2810   13.4380 N.am  595  LYS595     -0.1965
     16  CA        27.2380   68.4440   12.4690 C.3   595  LYS595      0.1728
     17  C         27.5540   67.1270   11.7760 C.2   595  LYS595      0.2616
     18  O         27.9050   67.1030   10.5940 O.2   595  LYS595     -0.2715
     19  CB        28.5040   68.9610   13.1600 C.3   595  LYS595      0.0311
     20  CG        28.2610   70.1500   14.0830 C.3   595  LYS595      0.0038
     21  CD        27.7760   69.6840   15.4560 C.3   595  LYS595      0.0206
     22  CE        26.6310   70.5380   15.9660 C.3   595  LYS595      0.1093
     23  NZ        26.2370   70.1240   17.3520 N.3   595  LYS595     -0.1314
     24  N         27.4320   66.0360   12.5260 N.am  596  LYS596     -0.1977
     25  CA        27.7160   64.7070   12.0050 C.3   596  LYS596      0.1596
     26  C         26.5080   64.0860   11.3140 C.2   596  LYS596      0.2287
     27  O         26.5830   62.9780   10.7760 O.2   596  LYS596     -0.2864
     28  CB        28.1990   63.8060   13.1490 C.3   596  LYS596      0.0298
     29  CG        29.4530   64.3580   13.8350 C.3   596  LYS596      0.0038
     30  CD        29.9060   63.5230   15.0220 C.3   596  LYS596      0.0206
     31  CE        31.2160   64.0650   15.5960 C.3   596  LYS596      0.1093
     32  NZ        31.6910   63.2930   16.7970 N.3   596  LYS596     -0.1314
     33  N         23.6520   62.4730   12.2440 N.3   598  PRO598     -0.2116
     34  CA        23.3030   61.0810   12.5760 C.3   598  PRO598      0.1372
     35  C         21.8390   60.7820   12.2440 C.2   598  PRO598      0.2244
     36  O         20.9880   61.6660   12.3660 O.2   598  PRO598     -0.2868
     37  CB        23.5330   61.0050   14.0930 C.3   598  PRO598      0.0268
     38  CG        24.4220   62.1820   14.4030 C.3   598  PRO598      0.0207
     39  CD        23.9620   63.2480   13.4590 C.3   598  PRO598      0.0892
     40  N         18.2310   59.6280   12.9770 N.3   600  TRP600     -0.1241
     41  CA        17.3670   59.4710   14.1390 C.3   600  TRP600      0.1605
     42  C         16.2640   58.5900   13.6040 C.2   600  TRP600      0.2264
     43  O         15.4760   59.0080   12.7560 O.2   600  TRP600     -0.2867
     44  CB        16.8360   60.8320   14.6110 C.3   600  TRP600      0.0550
     45  CG        15.7480   60.7810   15.6510 C.ar  600  TRP600      0.0003
     46  CD1       14.4950   60.2600   15.5080 C.ar  600  TRP600      0.0946
     47  CD2       15.8050   61.3200   16.9740 C.ar  600  TRP600      0.0152
     48  NE1       13.7660   60.4440   16.6630 N.ar  600  TRP600     -0.2442
     49  CE2       14.5520   61.0890   17.5770 C.ar  600  TRP600      0.0810
     50  CE3       16.7990   61.9690   17.7120 C.ar  600  TRP600      0.0012
     51  CZ2       14.2610   61.4940   18.8860 C.ar  600  TRP600      0.0191
     52  CZ3       16.5130   62.3720   19.0130 C.ar  600  TRP600      0.0001
     53  CH2       15.2500   62.1290   19.5880 C.ar  600  TRP600      0.0015
     54  N         19.6380   55.7190   17.2110 N.3   619  ILE619     -0.1245
     55  CA        20.4390   56.6180   16.3960 C.3   619  ILE619      0.1561
     56  C         21.4330   55.7720   15.6010 C.2   619  ILE619      0.2260
     57  O         22.1360   54.9430   16.1810 O.2   619  ILE619     -0.2867
     58  CB        21.2680   57.6020   17.2580 C.3   619  ILE619      0.0252
     59  CG1       20.3480   58.6000   17.9630 C.3   619  ILE619      0.0019
     60  CG2       22.2900   58.3070   16.3970 C.3   619  ILE619      0.0019
     61  CD1       19.4300   59.3460   17.0210 C.3   619  ILE619      0.0001
     62  N         24.6420   56.1190   13.8600 N.3   621  LYS621     -0.1245
     63  CA        25.7480   57.0580   13.7060 C.3   621  LYS621      0.1561
     64  C         26.7450   56.5680   12.6740 C.2   621  LYS621      0.2260
     65  O         27.1210   55.4020   12.6660 O.2   621  LYS621     -0.2867
     66  CB        26.4450   57.2380   15.0500 C.3   621  LYS621      0.0271
     67  CG        27.3760   58.4200   15.1180 C.3   621  LYS621      0.0035
     68  CD        28.3710   58.1720   16.2250 C.3   621  LYS621      0.0206
     69  CE        28.8400   59.4410   16.8510 C.3   621  LYS621      0.1093
     70  NZ        27.8370   59.9370   17.8200 N.3   621  LYS621     -0.1314
     71  N         33.4830   55.4850   23.1630 N.3   629  ASP629     -0.1239
     72  CA        32.2360   55.6880   23.8920 C.3   629  ASP629      0.1674
     73  C         31.8370   54.3840   24.5860 C.2   629  ASP629      0.2266
     74  O         31.4100   54.4140   25.7310 O.2   629  ASP629     -0.2867
     75  CB        31.1030   56.1480   22.9670 C.3   629  ASP629      0.1410
     76  CG        31.3180   57.5660   22.4310 C.2   629  ASP629      0.3668
     77  OD1       32.2970   57.7960   21.6960 O.co2 629  ASP629     -0.2456
     78  OD2       30.5080   58.4540   22.7530 O.co2 629  ASP629     -0.2456
     79  N         23.5490   54.5950   28.7660 N.3   655  TYR655     -0.1241
     80  CA        22.6380   54.2070   27.6990 C.3   655  TYR655      0.1605
     81  C         23.3200   53.2470   26.7190 C.2   655  TYR655      0.2264
     82  O         24.5590   53.1460   26.6710 O.2   655  TYR655     -0.2867
     83  CB        22.1540   55.4720   26.9800 C.3   655  TYR655      0.0534
     84  CG        23.3070   56.3230   26.4930 C.ar  655  TYR655     -0.0201
     85  CD1       23.8970   56.1000   25.2540 C.ar  655  TYR655     -0.0009
     86  CD2       23.8540   57.3100   27.3090 C.ar  655  TYR655     -0.0009
     87  CE1       25.0020   56.8360   24.8530 C.ar  655  TYR655      0.0417
     88  CE2       24.9520   58.0430   26.9190 C.ar  655  TYR655      0.0417
     89  CZ        25.5300   57.8090   25.6980 C.ar  655  TYR655      0.1957
     90  OH        26.6500   58.5190   25.3350 O.3   655  TYR655     -0.2866
     91  N         23.0850   53.9480   18.7120 N.3   667  ILE667     -0.1231
     92  CA        23.0260   54.5330   20.0380 C.3   667  ILE667      0.1692
     93  C         21.5870   54.6420   20.4990 C.2   667  ILE667      0.2592
     94  O         20.7000   55.0540   19.7400 O.2   667  ILE667     -0.2718
     95  CB        23.6530   55.9410   20.0680 C.3   667  ILE667      0.0266
     96  CG1       25.0650   55.9030   19.4830 C.3   667  ILE667      0.0019
     97  CG2       23.6870   56.4530   21.5010 C.3   667  ILE667      0.0020
     98  CD1       25.7670   57.2600   19.5450 C.3   667  ILE667      0.0001
     99  N         21.3620   54.2450   21.7420 N.am  668  GLU668     -0.1966
    100  CA        20.0320   54.2940   22.3310 C.3   668  GLU668      0.1733
    101  C         19.5270   55.7270   22.4960 C.2   668  GLU668      0.2616
    102  O         20.2600   56.5900   22.9650 O.2   668  GLU668     -0.2715
    103  CB        20.0400   53.6370   23.7120 C.3   668  GLU668      0.0429
    104  CG        18.7080   53.7140   24.4070 C.3   668  GLU668      0.1163
    105  CD        18.7340   53.1210   25.8120 C.2   668  GLU668      0.3649
    106  OE1       17.6590   53.1320   26.4530 O.co2 668  GLU668     -0.2457
    107  OE2       19.8060   52.6460   26.2750 O.co2 668  GLU668     -0.2457
    108  N         18.2770   55.9820   22.1230 N.am  669  ILE669     -0.1963
    109  CA        17.7150   57.3160   22.2890 C.3   669  ILE669      0.1727
    110  C         17.0060   57.3140   23.6290 C.2   669  ILE669      0.2616
    111  O         16.0390   56.5750   23.8050 O.2   669  ILE669     -0.2715
    112  CB        16.6740   57.6470   21.1920 C.3   669  ILE669      0.0290
    113  CG1       17.3800   57.8320   19.8550 C.3   669  ILE669      0.0022
    114  CG2       15.9000   58.9080   21.5680 C.3   669  ILE669      0.0023
    115  CD1       16.4380   58.0890   18.7060 C.3   669  ILE669      0.0001
    116  N         17.5030   58.0980   24.5840 N.am  670  VAL670     -0.1977
    117  CA        16.8690   58.1750   25.8960 C.3   670  VAL670      0.1596
    118  C         15.5690   58.9740   25.7230 C.2   670  VAL670      0.2287
    119  O         15.5670   60.0490   25.1240 O.2   670  VAL670     -0.2864
    120  CB        17.7780   58.8830   26.9350 C.3   670  VAL670      0.0276
    121  CG1       17.0180   59.0670   28.2490 C.3   670  VAL670      0.0022
    122  CG2       19.0480   58.0510   27.1850 C.3   670  VAL670      0.0022
    123  N         19.1730   68.3410   26.1570 N.3   675  THR675     -0.1218
    124  CA        20.4910   68.8250   26.5280 C.3   675  THR675      0.1862
    125  C         20.3820   70.0230   27.4620 C.2   675  THR675      0.2287
    126  O         19.4430   70.8190   27.3690 O.2   675  THR675     -0.2866
    127  CB        21.2630   69.2480   25.2750 C.3   675  THR675      0.1770
    128  OG1       21.6450   68.0780   24.5290 O.3   675  THR675     -0.2211
    129  CG2       22.4820   70.0490   25.6550 C.3   675  THR675      0.0375
    130  N         20.5200   73.1540   25.5790 N.3   678  LYS678     -0.1245
    131  CA        19.2400   73.3700   24.9060 C.3   678  LYS678      0.1561
    132  C         18.2800   74.1140   25.8370 C.2   678  LYS678      0.2260
    133  O         17.6640   75.1070   25.4580 O.2   678  LYS678     -0.2867
    134  CB        18.6230   72.0300   24.5040 C.3   678  LYS678      0.0271
    135  CG        19.3440   71.3050   23.3820 C.3   678  LYS678      0.0035
    136  CD        18.7440   71.6440   22.0290 C.3   678  LYS678      0.0206
    137  CE        19.2780   70.7210   20.9370 C.3   678  LYS678      0.1093
    138  NZ        18.5690   70.9530   19.6240 N.3   678  LYS678     -0.1314
    139  N         26.6410   71.1600   26.1450 N.3   738  ASP738     -0.1225
    140  CA        25.8470   70.3860   25.1960 C.3   738  ASP738      0.1805
    141  C         26.1260   68.8880   25.2800 C.2   738  ASP738      0.2597
    142  O         25.4690   68.0960   24.6110 O.2   738  ASP738     -0.2718
    143  CB        26.0880   70.8900   23.7620 C.3   738  ASP738      0.1424
    144  CG        24.9490   70.5210   22.8050 C.2   738  ASP738      0.3668
    145  OD1       23.7800   70.8250   23.1150 O.co2 738  ASP738     -0.2456
    146  OD2       25.2070   69.9310   21.7340 O.co2 738  ASP738     -0.2456
    147  N         27.0850   68.4930   26.1100 N.am  739  ASN739     -0.1974
    148  CA        27.4000   67.0770   26.2290 C.3   739  ASN739      0.1688
    149  C         26.7860   66.4620   27.4790 C.2   739  ASN739      0.2292
    150  O         27.1350   65.3520   27.8950 O.2   739  ASN739     -0.2864
    151  CB        28.9120   66.8800   26.2000 C.3   739  ASN739      0.1181
    152  CG        29.4940   67.1560   24.8190 C.2   739  ASN739      0.2629
    153  OD1       30.5610   67.7400   24.6890 O.2   739  ASN739     -0.2716
    154  ND2       28.7860   66.7360   23.7860 N.am  739  ASN739     -0.0877
    155  N         22.9750   65.7050   29.3080 N.3   741  MET741     -0.1245
    156  CA        21.5370   65.6650   29.1390 C.3   741  MET741      0.1570
    157  C         20.8420   65.5010   30.4760 C.2   741  MET741      0.2261
    158  O         21.4750   65.1910   31.4920 O.2   741  MET741     -0.2867
    159  CB        21.1290   64.5170   28.2180 C.3   741  MET741      0.0387
    160  CG        21.4420   64.7670   26.7560 C.3   741  MET741      0.0595
    161  SD        20.7760   63.4520   25.6770 S.3   741  MET741     -0.1393
    162  CE        19.1810   64.1590   25.2230 C.3   741  MET741      0.0692
    163  N         22.7560   62.9240   32.9310 N.3   749  PHE749     -0.1241
    164  CA        23.7000   61.9630   32.3820 C.3   749  PHE749      0.1605
    165  C         24.5330   62.5370   31.2590 C.2   749  PHE749      0.2264
    166  O         24.0250   63.2850   30.4140 O.2   749  PHE749     -0.2867
    167  CB        22.9650   60.6880   31.9190 C.3   749  PHE749      0.0534
    168  CG        21.9390   60.9100   30.8260 C.ar  749  PHE749     -0.0203
    169  CD1       22.2390   60.6430   29.4940 C.ar  749  PHE749     -0.0042
    170  CD2       20.6490   61.3170   31.1430 C.ar  749  PHE749     -0.0042
    171  CE1       21.2570   60.7730   28.4940 C.ar  749  PHE749     -0.0003
    172  CE2       19.6710   61.4470   30.1530 C.ar  749  PHE749     -0.0003
    173  CZ        19.9710   61.1740   28.8280 C.ar  749  PHE749     -0.0000
    174  N         26.8100   62.4060   27.7890 N.3   751  ILE751     -0.1231
    175  CA        26.6860   61.6970   26.5160 C.3   751  ILE751      0.1692
    176  C         27.8010   62.0830   25.5610 C.2   751  ILE751      0.2592
    177  O         28.7270   62.8160   25.9090 O.2   751  ILE751     -0.2718
    178  CB        25.3780   62.0270   25.7730 C.3   751  ILE751      0.0266
    179  CG1       25.3620   63.5280   25.4120 C.3   751  ILE751      0.0019
    180  CG2       24.1780   61.6340   26.6040 C.3   751  ILE751      0.0020
    181  CD1       24.2980   63.9310   24.3810 C.3   751  ILE751      0.0001
    182  N         27.7100   61.5200   24.3650 N.am  752  ASP752     -0.1974
    183  CA        28.6210   61.8270   23.2720 C.3   752  ASP752      0.1709
    184  C         30.0690   62.0390   23.7030 C.2   752  ASP752      0.2293
    185  O         30.6050   63.1220   23.5690 O.2   752  ASP752     -0.2864
    186  CB        28.0690   63.0680   22.5460 C.3   752  ASP752      0.1436
    187  CG        28.8460   63.4200   21.3000 C.2   752  ASP752      0.3671
    188  OD1       29.4030   62.4900   20.6640 O.co2 752  ASP752     -0.2456
    189  OD2       28.8750   64.6280   20.9690 O.co2 752  ASP752     -0.2456
@<TRIPOS>BOND
     1    18    17    2
     2    27    26    2
     3    26    25    1
     4     4     3    2
     5    17    16    1
     6    17    24   am
     7     1     2    1
     8    12    11    2
     9    25    24    1
    10    25    28    1
    11    35    36    2
    12    35    34    1
    13    33    34    1
    14    33    39    1
    15    16    19    1
    16    16    15    1
    17     3     2    1
    18    34    37    1
    19    65    64    2
    20    64    63    1
    21    43    42    2
    22    40    41    1
    23     2     5    1
    24    11    15   am
    25    11    10    1
    26    28    29    1
    27    19    20    1
    28    39    38    1
    29    42    41    1
    30     9    10    1
    31    63    62    1
    32    63    66    1
    33    29    30    1
    34     5     6    1
    35    20    21    1
    36    37    38    1
    37    41    44    1
    38    10    13    1
    39    44    45    1
    40    13    14    1
    41    30    31    1
    42    66    67    1
    43    67    68    1
    44     6     7    1
    45    21    22    1
    46    46    45   ar
    47    46    48   ar
    48    31    32    1
    49    56    57    2
    50    56    55    1
    51    45    47   ar
    52    22    23    1
    53     8     7    1
    54    68    69    1
    55    55    54    1
    56    55    58    1
    57    60    58    1
    58    48    49   ar
    59    69    70    1
    60    47    49   ar
    61    47    50   ar
    62    61    59    1
    63    58    59    1
    64    49    51   ar
    65    50    52   ar
    66   115   113    1
    67    91    92    1
    68    51    53   ar
    69    52    53   ar
    70    96    98    1
    71    96    95    1
    72   138   137    1
    73    94    93    2
    74   113   112    1
    75    92    95    1
    76    92    93    1
    77    95    97    1
    78    93    99   am
    79   188   187   ar
    80   137   136    1
    81   189   187   ar
    82   112   114    1
    83   112   109    1
    84   187   186    1
    85    77    76   ar
    86   146   144   ar
    87    99   100    1
    88   136   135    1
    89   108   109    1
    90   108   101   am
    91   109   110    1
    92   100   101    1
    93   100   103    1
    94    76    78   ar
    95    76    75    1
    96   101   102    2
    97   186   183    1
    98   144   145   ar
    99   144   143    1
   100    75    72    1
   101    71    72    1
   102   183   184    1
   103   183   182    1
   104   135   134    1
   105   185   184    2
   106   110   111    2
   107   110   116   am
   108   103   104    1
   109   143   140    1
   110   154   152   am
   111    72    73    1
   112   182   176   am
   113   181   179    1
   114   104   105    1
   115   134   131    1
   116   128   127    1
   117   116   117    1
   118    73    74    2
   119   142   141    2
   120   153   152    2
   121   152   151    1
   122    87    85   ar
   123    87    89   ar
   124   131   130    1
   125   131   132    1
   126   119   118    2
   127   140   141    1
   128   140   139    1
   129   162   161    1
   130    85    84   ar
   131   127   129    1
   132   127   124    1
   133   141   147   am
   134    90    89    1
   135   179   178    1
   136   133   132    2
   137   176   177    2
   138   176   175    1
   139   161   160    1
   140    89    88   ar
   141   118   117    1
   142   178   175    1
   143   178   180    1
   144   105   107   ar
   145   105   106   ar
   146   117   120    1
   147   147   148    1
   148   123   124    1
   149   151   148    1
   150   148   149    1
   151    84    83    1
   152    84    86   ar
   153   175   174    1
   154   124   125    1
   155    82    81    2
   156    81    80    1
   157   160   159    1
   158    88    86   ar
   159   120   122    1
   160   120   121    1
   161    83    80    1
   162   126   125    2
   163   149   150    2
   164    80    79    1
   165   159   156    1
   166   171   173   ar
   167   171   169   ar
   168   173   172   ar
   169   156   155    1
   170   156   157    1
   171   169   168   ar
   172   172   170   ar
   173   166   165    2
   174   157   158    2
   175   168   170   ar
   176   168   167    1
   177   165   164    1
   178   167   164    1
   179   164   163    1
