@<TRIPOS>MOLECULE
tmp/1e7vA00.pdb
 166 157 0 0 0
SMALL
GASTEIGER

@<TRIPOS>ATOM
      1  N         18.0750   64.8040   12.4670 N.3   570  MET570     -0.1245
      2  CA        18.3900   65.7720   13.5040 C.3   570  MET570      0.1570
      3  C         19.2600   66.9090   12.9980 C.2   570  MET570      0.2261
      4  O         20.2420   66.7020   12.2860 O.2   570  MET570     -0.2867
      5  CB        19.0510   65.0650   14.6910 C.3   570  MET570      0.0387
      6  CG        18.0860   64.1410   15.4500 C.3   570  MET570      0.0595
      7  SD        18.9060   62.8030   16.3350 S.3   570  MET570     -0.1393
      8  CE        19.2200   61.6840   15.0020 C.3   570  MET570      0.0692
      9  N         21.6640   68.3820   13.7620 N.3   572  SER572     -0.1217
     10  CA        22.9050   68.3660   14.5120 C.3   572  SER572      0.1889
     11  C         24.0290   68.6800   13.5400 C.2   572  SER572      0.2288
     12  O         23.7900   69.2010   12.4490 O.2   572  SER572     -0.2866
     13  CB        23.1250   66.9890   15.1460 C.3   572  SER572      0.2089
     14  OG        24.2650   66.9830   15.9900 O.3   572  SER572     -0.2183
     15  N         22.7440   63.1370   12.1560 N.3   576  PRO576     -0.2116
     16  CA        22.3480   61.7660   12.4990 C.3   576  PRO576      0.1372
     17  C         20.9060   61.5280   12.0840 C.2   576  PRO576      0.2244
     18  O         20.1660   62.4840   11.8530 O.2   576  PRO576     -0.2868
     19  CB        22.4920   61.7310   14.0230 C.3   576  PRO576      0.0268
     20  CG        23.4240   62.8640   14.3340 C.3   576  PRO576      0.0207
     21  CD        22.9860   63.9200   13.3790 C.3   576  PRO576      0.0892
     22  N         17.1280   60.1900   12.9740 N.3   578  TRP578     -0.1241
     23  CA        16.2400   59.9010   14.0880 C.3   578  TRP578      0.1605
     24  C         15.1440   58.9830   13.5940 C.2   578  TRP578      0.2264
     25  O         14.1740   59.4380   13.0190 O.2   578  TRP578     -0.2867
     26  CB        15.6390   61.1950   14.6370 C.3   578  TRP578      0.0550
     27  CG        14.5790   61.0180   15.6860 C.ar  578  TRP578      0.0003
     28  CD1       13.3070   60.5570   15.5040 C.ar  578  TRP578      0.0946
     29  CD2       14.6840   61.3690   17.0660 C.ar  578  TRP578      0.0152
     30  NE1       12.6100   60.6090   16.6880 N.ar  578  TRP578     -0.2442
     31  CE2       13.4280   61.1030   17.6600 C.ar  578  TRP578      0.0810
     32  CE3       15.7090   61.8860   17.8550 C.ar  578  TRP578      0.0012
     33  CZ2       13.1810   61.3420   19.0200 C.ar  578  TRP578      0.0191
     34  CZ3       15.4620   62.1230   19.2040 C.ar  578  TRP578      0.0001
     35  CH2       14.2050   61.8500   19.7700 C.ar  578  TRP578      0.0015
     36  N         18.8220   55.9210   16.8950 N.3   597  ILE597     -0.1245
     37  CA        19.5600   56.9330   16.1670 C.3   597  ILE597      0.1561
     38  C         20.7740   56.3430   15.4680 C.2   597  ILE597      0.2260
     39  O         21.5190   55.5690   16.0620 O.2   597  ILE597     -0.2867
     40  CB        20.0370   58.0580   17.0920 C.3   597  ILE597      0.0252
     41  CG1       18.8340   58.7640   17.7160 C.3   597  ILE597      0.0019
     42  CG2       20.8960   59.0290   16.3130 C.3   597  ILE597      0.0019
     43  CD1       19.2160   59.9720   18.5260 C.3   597  ILE597      0.0001
     44  N         24.2200   57.4120   13.5580 N.3   599  LYS599     -0.1245
     45  CA        25.1040   58.5520   13.3510 C.3   599  LYS599      0.1561
     46  C         26.4370   58.2010   12.7010 C.2   599  LYS599      0.2260
     47  O         26.9770   57.1120   12.8940 O.2   599  LYS599     -0.2867
     48  CB        25.3640   59.2520   14.6870 C.3   599  LYS599      0.0271
     49  CG        26.0930   60.5880   14.5750 C.3   599  LYS599      0.0035
     50  CD        26.3440   61.2170   15.9570 C.3   599  LYS599      0.0206
     51  CE        27.3640   60.4240   16.7530 C.3   599  LYS599      0.1093
     52  NZ        27.0770   60.4380   18.2190 N.3   599  LYS599     -0.1314
     53  N         31.7940   55.6560   23.1570 N.3   607  ASP607     -0.1239
     54  CA        30.5220   55.7330   23.8740 C.3   607  ASP607      0.1674
     55  C         30.2260   54.3680   24.4770 C.2   607  ASP607      0.2266
     56  O         29.9580   54.2700   25.6740 O.2   607  ASP607     -0.2867
     57  CB        29.3950   56.1620   22.9290 C.3   607  ASP607      0.1410
     58  CG        29.4860   57.6420   22.5430 C.2   607  ASP607      0.3668
     59  OD1       30.5620   58.0530   22.0420 O.co2 607  ASP607     -0.2456
     60  OD2       28.4850   58.3830   22.7430 O.co2 607  ASP607     -0.2456
     61  N         22.0420   54.5910   28.2990 N.3   633  TYR633     -0.1241
     62  CA        21.2820   54.1600   27.1290 C.3   633  TYR633      0.1605
     63  C         22.0610   53.2300   26.1970 C.2   633  TYR633      0.2264
     64  O         23.2920   53.2820   26.0970 O.2   633  TYR633     -0.2867
     65  CB        20.7920   55.3960   26.3440 C.3   633  TYR633      0.0534
     66  CG        21.9060   56.3770   26.0440 C.ar  633  TYR633     -0.0201
     67  CD1       22.7690   56.1880   24.9640 C.ar  633  TYR633     -0.0009
     68  CD2       22.1530   57.4560   26.9100 C.ar  633  TYR633     -0.0009
     69  CE1       23.8600   57.0630   24.7630 C.ar  633  TYR633      0.0417
     70  CE2       23.2300   58.3110   26.7180 C.ar  633  TYR633      0.0417
     71  CZ        24.0820   58.1160   25.6610 C.ar  633  TYR633      0.1957
     72  OH        25.2000   58.8900   25.5830 O.3   633  TYR633     -0.2866
     73  N         22.1090   54.1300   18.4640 N.3   645  ILE645     -0.1231
     74  CA        21.9580   54.6450   19.8100 C.3   645  ILE645      0.1692
     75  C         20.4920   54.5830   20.2430 C.2   645  ILE645      0.2592
     76  O         19.5860   54.9100   19.4800 O.2   645  ILE645     -0.2718
     77  CB        22.3960   56.1190   19.8880 C.3   645  ILE645      0.0266
     78  CG1       23.8220   56.2730   19.3580 C.3   645  ILE645      0.0019
     79  CG2       22.2850   56.6160   21.3130 C.3   645  ILE645      0.0020
     80  CD1       24.3130   57.7070   19.3640 C.3   645  ILE645      0.0001
     81  N         20.2690   54.1840   21.4830 N.am  646  GLU646     -0.1966
     82  CA        18.9300   54.0970   22.0200 C.3   646  GLU646      0.1733
     83  C         18.3700   55.5100   22.2270 C.2   646  GLU646      0.2616
     84  O         19.1260   56.4320   22.5600 O.2   646  GLU646     -0.2715
     85  CB        18.9720   53.3860   23.3620 C.3   646  GLU646      0.0429
     86  CG        17.6530   53.3830   24.0680 C.3   646  GLU646      0.1163
     87  CD        17.7170   52.7480   25.4410 C.2   646  GLU646      0.3649
     88  OE1       16.6330   52.5930   26.0500 O.co2 646  GLU646     -0.2457
     89  OE2       18.8420   52.4070   25.9130 O.co2 646  GLU646     -0.2457
     90  N         17.0570   55.6760   22.0250 N.am  647  ILE647     -0.1963
     91  CA        16.4070   56.9710   22.2100 C.3   647  ILE647      0.1727
     92  C         15.5910   56.9990   23.4880 C.2   647  ILE647      0.2616
     93  O         14.6040   56.2730   23.6190 O.2   647  ILE647     -0.2715
     94  CB        15.4360   57.3230   21.0600 C.3   647  ILE647      0.0290
     95  CG1       16.2170   57.7530   19.8250 C.3   647  ILE647      0.0022
     96  CG2       14.4930   58.4380   21.4990 C.3   647  ILE647      0.0023
     97  CD1       15.3320   58.2240   18.7120 C.3   647  ILE647      0.0001
     98  N         15.9910   57.8470   24.4220 N.am  648  VAL648     -0.1977
     99  CA        15.2750   57.9660   25.6790 C.3   648  VAL648      0.1596
    100  C         14.0490   58.8240   25.4310 C.2   648  VAL648      0.2287
    101  O         14.1640   59.9730   25.0010 O.2   648  VAL648     -0.2864
    102  CB        16.1380   58.6450   26.7540 C.3   648  VAL648      0.0276
    103  CG1       15.2800   59.0350   27.9430 C.3   648  VAL648      0.0022
    104  CG2       17.2630   57.7130   27.1720 C.3   648  VAL648      0.0022
    105  N         12.6910   63.2670   26.4820 N.3   651  ALA651     -0.1231
    106  CA        13.9670   63.8420   26.9040 C.3   651  ALA651      0.1694
    107  C         14.4050   65.0010   26.0260 C.2   651  ALA651      0.2593
    108  O         14.1900   64.9840   24.8180 O.2   651  ALA651     -0.2718
    109  CB        15.0410   62.7650   26.9060 C.3   651  ALA651      0.0304
    110  N         15.0240   66.0110   26.6280 N.am  652  THR652     -0.1939
    111  CA        15.4820   67.1510   25.8450 C.3   652  THR652      0.2028
    112  C         16.8690   67.5890   26.2860 C.2   652  THR652      0.2642
    113  O         17.3180   67.2680   27.3910 O.2   652  THR652     -0.2714
    114  CB        14.5110   68.3620   25.9580 C.3   652  THR652      0.1808
    115  OG1       13.1620   67.8960   26.0850 O.3   652  THR652     -0.2208
    116  CG2       14.5970   69.2230   24.6950 C.3   652  THR652      0.0379
    117  N         17.5570   68.2930   25.3960 N.am  653  THR653     -0.1950
    118  CA        18.8880   68.8010   25.6930 C.3   653  THR653      0.1897
    119  C         18.7380   69.9860   26.6520 C.2   653  THR653      0.2313
    120  O         17.7720   70.7420   26.5670 O.2   653  THR653     -0.2863
    121  CB        19.6050   69.2550   24.3970 C.3   653  THR653      0.1794
    122  OG1       20.2210   70.5320   24.6060 O.3   653  THR653     -0.2208
    123  CG2       18.6120   69.3380   23.2330 C.3   653  THR653      0.0378
    124  N         24.8160   71.2430   25.5960 N.3   716  ASP716     -0.1239
    125  CA        24.0570   70.4320   24.6550 C.3   716  ASP716      0.1674
    126  C         24.3140   68.9300   24.7630 C.2   716  ASP716      0.2266
    127  O         23.4950   68.1210   24.3270 O.2   716  ASP716     -0.2867
    128  CB        24.3210   70.9360   23.2260 C.3   716  ASP716      0.1410
    129  CG        23.1250   70.7240   22.3000 C.2   716  ASP716      0.3668
    130  OD1       21.9750   71.0510   22.6930 O.co2 716  ASP716     -0.2456
    131  OD2       23.3410   70.2260   21.1740 O.co2 716  ASP716     -0.2456
    132  N         21.3700   65.9410   29.0230 N.3   719  MET719     -0.1245
    133  CA        19.9130   65.8750   28.9060 C.3   719  MET719      0.1570
    134  C         19.1560   65.6450   30.1990 C.2   719  MET719      0.2261
    135  O         19.7290   65.2990   31.2380 O.2   719  MET719     -0.2867
    136  CB        19.5090   64.8050   27.8710 C.3   719  MET719      0.0387
    137  CG        20.1350   65.0570   26.5040 C.3   719  MET719      0.0595
    138  SD        19.5130   63.9940   25.2050 S.3   719  MET719     -0.1393
    139  CE        17.9320   64.8010   24.8420 C.3   719  MET719      0.0692
    140  N         20.9630   63.0430   32.3940 N.3   727  PHE727     -0.1241
    141  CA        21.9340   62.0630   31.9080 C.3   727  PHE727      0.1605
    142  C         22.8190   62.6270   30.8020 C.2   727  PHE727      0.2264
    143  O         22.3200   63.3340   29.9320 O.2   727  PHE727     -0.2867
    144  CB        21.1850   60.8120   31.4020 C.3   727  PHE727      0.0534
    145  CG        20.3730   61.0250   30.1350 C.ar  727  PHE727     -0.0203
    146  CD1       20.9820   60.9760   28.8880 C.ar  727  PHE727     -0.0042
    147  CD2       19.0020   61.2220   30.1960 C.ar  727  PHE727     -0.0042
    148  CE1       20.2230   61.1150   27.7180 C.ar  727  PHE727     -0.0003
    149  CE2       18.2310   61.3610   29.0330 C.ar  727  PHE727     -0.0003
    150  CZ        18.8390   61.3070   27.7970 C.ar  727  PHE727     -0.0000
    151  N         25.4110   62.5820   27.3570 N.3   729  ILE729     -0.1231
    152  CA        25.3370   61.9360   26.0340 C.3   729  ILE729      0.1692
    153  C         26.5220   62.2390   25.1200 C.2   729  ILE729      0.2592
    154  O         27.4920   62.8770   25.5220 O.2   729  ILE729     -0.2718
    155  CB        24.0990   62.3690   25.2510 C.3   729  ILE729      0.0266
    156  CG1       24.1140   63.8970   25.0820 C.3   729  ILE729      0.0019
    157  CG2       22.8530   61.8730   25.9250 C.3   729  ILE729      0.0020
    158  CD1       23.3460   64.4120   23.8380 C.3   729  ILE729      0.0001
    159  N         26.4130   61.7600   23.8830 N.am  730  ASP730     -0.1974
    160  CA        27.4080   61.9740   22.8310 C.3   730  ASP730      0.1709
    161  C         28.8240   62.0320   23.3750 C.2   730  ASP730      0.2293
    162  O         29.3980   63.1120   23.5320 O.2   730  ASP730     -0.2864
    163  CB        27.0390   63.2640   22.0620 C.3   730  ASP730      0.1436
    164  CG        28.0420   63.6360   20.9590 C.2   730  ASP730      0.3671
    165  OD1       28.5370   62.7450   20.2280 O.co2 730  ASP730     -0.2456
    166  OD2       28.3160   64.8490   20.8140 O.co2 730  ASP730     -0.2456
@<TRIPOS>BOND
     1    18    17    2
     2    17    16    1
     3    15    16    1
     4    15    21    1
     5     4     3    2
     6    12    11    2
     7     1     2    1
     8    16    19    1
     9    46    47    2
    10    46    45    1
    11    22    23    1
    12     3     2    1
    13    25    24    2
    14    45    44    1
    15    45    48    1
    16    21    20    1
    17     2     5    1
    18    11    10    1
    19    24    23    1
    20     9    10    1
    21    19    20    1
    22    23    26    1
    23    10    13    1
    24    49    48    1
    25    49    50    1
    26    26    27    1
    27     5     6    1
    28     8     7    1
    29    13    14    1
    30     6     7    1
    31    38    39    2
    32    38    37    1
    33    28    27   ar
    34    28    30   ar
    35    27    29   ar
    36    50    51    1
    37    37    36    1
    38    37    40    1
    39    42    40    1
    40    30    31   ar
    41    51    52    1
    42    29    31   ar
    43    29    32   ar
    44    40    41    1
    45    31    33   ar
    46    41    43    1
    47    32    34   ar
    48    73    74    1
    49    97    95    1
    50    33    35   ar
    51    34    35   ar
    52    78    80    1
    53    78    77    1
    54    76    75    2
    55    74    77    1
    56    74    75    1
    57    95    94    1
    58    77    79    1
    59   165   164   ar
    60    75    81   am
    61   166   164   ar
    62   164   163    1
    63    94    96    1
    64    94    91    1
    65   131   129   ar
    66    81    82    1
    67    82    83    1
    68    82    85    1
    69    90    91    1
    70    90    83   am
    71    59    58   ar
    72   163   160    1
    73    91    92    1
    74    83    84    2
    75   129   130   ar
    76   129   128    1
    77    58    60   ar
    78    58    57    1
    79   160   161    1
    80   160   159    1
    81    57    54    1
    82    53    54    1
    83   128   125    1
    84   123   121    1
    85    85    86    1
    86   161   162    2
    87    92    93    2
    88    92    98   am
    89   158   156    1
    90    54    55    1
    91   159   153   am
    92    86    87    1
    93   127   126    2
    94   121   122    1
    95   121   118    1
    96    98    99    1
    97    55    56    2
    98   125   126    1
    99   125   124    1
   100   116   114    1
   101    69    67   ar
   102    69    71   ar
   103   108   107    2
   104   139   138    1
   105    67    66   ar
   106   101   100    2
   107   156   155    1
   108   153   154    2
   109   153   152    1
   110   138   137    1
   111   155   157    1
   112   155   152    1
   113   117   118    1
   114   117   112   am
   115   100    99    1
   116    87    89   ar
   117    87    88   ar
   118    72    71    1
   119    71    70   ar
   120    99   102    1
   121   118   119    1
   122   111   114    1
   123   111   112    1
   124   111   110    1
   125   114   115    1
   126   107   110   am
   127   107   106    1
   128   152   151    1
   129    66    65    1
   130    66    68   ar
   131    64    63    2
   132    63    62    1
   133   112   113    2
   134    65    62    1
   135   105   106    1
   136   137   136    1
   137   120   119    2
   138    70    68   ar
   139   102   104    1
   140   102   103    1
   141   106   109    1
   142    62    61    1
   143   148   150   ar
   144   148   146   ar
   145   150   149   ar
   146   136   133    1
   147   146   145   ar
   148   133   132    1
   149   133   134    1
   150   149   147   ar
   151   143   142    2
   152   145   147   ar
   153   145   144    1
   154   134   135    2
   155   142   141    1
   156   144   141    1
   157   141   140    1
