@<TRIPOS>MOLECULE
tmp/1e7wA01.pdb
 155 147 0 0 0
SMALL
GASTEIGER

@<TRIPOS>ATOM
      1  N         19.8150    7.9210   -0.6910 N.3    13  ARG13      -0.1245
      2  CA        19.2280    6.8830    0.1310 C.3    13  ARG13       0.1563
      3  C         17.7040    6.8210    0.0370 C.2    13  ARG13       0.2260
      4  O         17.2000    6.8460   -1.0850 O.2    13  ARG13      -0.2867
      5  CB        19.7200    7.0960    1.5750 C.3    13  ARG13       0.0307
      6  CG        21.2670    6.8900    1.6330 C.3    13  ARG13       0.0489
      7  CD        21.8370    7.3760    2.9300 C.3    13  ARG13       0.2205
      8  NE        21.3420    6.6200    4.0660 N.pl3  13  ARG13      -0.0865
      9  CZ        21.5400    5.3900    4.4590 C.cat  13  ARG13       0.5346
     10  NH1       22.3350    4.5400    3.7710 N.pl3  13  ARG13       0.1354
     11  NH2       20.9210    5.0020    5.5740 N.pl3  13  ARG13       0.1354
     12  N         16.2530   13.7840    8.3710 N.3   103  SER103     -0.1217
     13  CA        16.4210   13.4170    9.7510 C.3   103  SER103      0.1889
     14  C         17.8840   13.1690   10.1620 C.2   103  SER103      0.2288
     15  O         18.6090   12.4850    9.4500 O.2   103  SER103     -0.2866
     16  CB        15.7640   12.0350    9.9930 C.3   103  SER103      0.2089
     17  OG        16.1120   11.3370   11.1730 O.3   103  SER103     -0.2183
     18  N         20.5320   11.6890   13.0100 N.3   105  PHE105     -0.1241
     19  CA        20.5140   10.4980   13.8630 C.3   105  PHE105      0.1605
     20  C         21.9670   10.2390   14.3650 C.2   105  PHE105      0.2264
     21  O         22.8270    9.8730   13.5640 O.2   105  PHE105     -0.2867
     22  CB        20.0770    9.3120   12.9820 C.3   105  PHE105      0.0534
     23  CG        20.2650    7.8990   13.4540 C.ar  105  PHE105     -0.0203
     24  CD1       19.4810    7.3240   14.4200 C.ar  105  PHE105     -0.0042
     25  CD2       21.2780    7.1030   12.8950 C.ar  105  PHE105     -0.0042
     26  CE1       19.6300    6.0260   14.8580 C.ar  105  PHE105     -0.0003
     27  CE2       21.4530    5.7880   13.3280 C.ar  105  PHE105     -0.0003
     28  CZ        20.6460    5.2390   14.3110 C.ar  105  PHE105     -0.0000
     29  N         24.0990    9.5070   18.5800 N.3   107  PRO107     -0.2116
     30  CA        23.8750    9.3530   19.9980 C.3   107  PRO107      0.1372
     31  C         23.7790   10.6070   20.8310 C.2   107  PRO107      0.2244
     32  O         24.4500   11.6020   20.5250 O.2   107  PRO107     -0.2868
     33  CB        25.0060    8.4500   20.4820 C.3   107  PRO107      0.0268
     34  CG        25.7290    7.9970   19.2750 C.3   107  PRO107      0.0207
     35  CD        25.3320    8.8360   18.1010 C.3   107  PRO107      0.0892
     36  N          9.8050    5.3420   12.6160 N.3   160  ASP160     -0.1239
     37  CA        10.7980    4.2560   12.8180 C.3   160  ASP160      0.1674
     38  C         10.0900    3.1040   13.4590 C.2   160  ASP160      0.2266
     39  O          9.5870    3.2590   14.5710 O.2   160  ASP160     -0.2867
     40  CB        11.9470    4.8290   13.6940 C.3   160  ASP160      0.1410
     41  CG        13.0790    3.8570   14.0170 C.2   160  ASP160      0.3668
     42  OD1       12.9050    2.6400   13.8960 O.co2 160  ASP160     -0.2456
     43  OD2       14.2110    4.3460   14.4090 O.co2 160  ASP160     -0.2456
     44  N         17.0000    2.0530   20.7270 N.3   167  LEU167     -0.1231
     45  CA        18.4220    1.7730   20.4420 C.3   167  LEU167      0.1693
     46  C         19.1820    2.4600   21.5860 C.2   167  LEU167      0.2592
     47  O         19.1050    3.6730   21.7970 O.2   167  LEU167     -0.2718
     48  CB        18.8920    2.3500   19.1140 C.3   167  LEU167      0.0284
     49  CG        20.3430    2.0730   18.7080 C.3   167  LEU167      0.0019
     50  CD1       20.5570    0.5550   18.6530 C.3   167  LEU167      0.0001
     51  CD2       20.7450    2.7260   17.3870 C.3   167  LEU167      0.0001
     52  N         19.9420    1.6750   22.3850 N.am  168  LEU168     -0.1966
     53  CA        20.6480    2.3090   23.5140 C.3   168  LEU168      0.1728
     54  C         21.5300    3.4770   23.1440 C.2   168  LEU168      0.2617
     55  O         22.3550    3.4430   22.2010 O.2   168  LEU168     -0.2715
     56  CB        21.4620    1.1700   24.1780 C.3   168  LEU168      0.0311
     57  CG        21.9700    1.4220   25.5930 C.3   168  LEU168      0.0022
     58  CD1       20.7870    1.1910   26.5360 C.3   168  LEU168      0.0001
     59  CD2       23.1340    0.4490   25.8100 C.3   168  LEU168      0.0001
     60  N         21.3570    4.6040   23.8560 N.am  169  GLY169     -0.1940
     61  CA        22.1660    5.7910   23.6420 C.3   169  GLY169      0.2014
     62  C         21.6210    6.8740   22.7220 C.2   169  GLY169      0.2638
     63  O         22.2010    7.9460   22.5160 O.2   169  GLY169     -0.2714
     64  N         20.4450    6.6120   22.1470 N.am  170  TYR170     -0.1973
     65  CA        19.8290    7.5830   21.2130 C.3   170  TYR170      0.1639
     66  C         18.5450    8.2070   21.7250 C.2   170  TYR170      0.2290
     67  O         17.5860    8.4570   20.9460 O.2   170  TYR170     -0.2864
     68  CB        19.4850    6.7540   19.9620 C.3   170  TYR170      0.0560
     69  CG        20.7030    6.4390   19.1220 C.ar  170  TYR170     -0.0198
     70  CD1       21.5990    5.4490   19.5260 C.ar  170  TYR170     -0.0009
     71  CD2       20.9380    7.1350   17.9720 C.ar  170  TYR170     -0.0009
     72  CE1       22.7170    5.1700   18.7290 C.ar  170  TYR170      0.0417
     73  CE2       22.0230    6.8820   17.1680 C.ar  170  TYR170      0.0417
     74  CZ        22.9040    5.8870   17.5720 C.ar  170  TYR170      0.1957
     75  OH        23.9800    5.6370   16.7720 O.3   170  TYR170     -0.2866
     76  N         16.9420   11.2790   19.7420 N.3   173  TYR173     -0.1241
     77  CA        16.3780   10.8000   18.4740 C.3   173  TYR173      0.1605
     78  C         15.0760   10.0460   18.7180 C.2   173  TYR173      0.2264
     79  O         14.0630   10.2520   18.0070 O.2   173  TYR173     -0.2867
     80  CB        17.3930    9.8600   17.7580 C.3   173  TYR173      0.0534
     81  CG        16.7510    9.0650   16.6300 C.ar  173  TYR173     -0.0201
     82  CD1       16.6730    9.6010   15.3500 C.ar  173  TYR173     -0.0009
     83  CD2       16.2400    7.8060   16.8890 C.ar  173  TYR173     -0.0009
     84  CE1       16.0600    8.8570   14.3440 C.ar  173  TYR173      0.0417
     85  CE2       15.6420    7.0590   15.8700 C.ar  173  TYR173      0.0417
     86  CZ        15.5640    7.6200   14.6100 C.ar  173  TYR173      0.1957
     87  OH        14.9650    6.8640   13.5890 O.3   173  TYR173     -0.2866
     88  N         11.2040   10.9910   17.3540 N.3   177  LYS177     -0.1245
     89  CA        10.3440   10.1720   16.4260 C.3   177  LYS177      0.1561
     90  C          9.0210    9.9510   17.1840 C.2   177  LYS177      0.2260
     91  O          7.9860    9.8890   16.5390 O.2   177  LYS177     -0.2867
     92  CB        11.0020    8.8520   16.0440 C.3   177  LYS177      0.0271
     93  CG        12.2080    9.0060   15.0940 C.3   177  LYS177      0.0035
     94  CD        11.7690    9.6480   13.7600 C.3   177  LYS177      0.0206
     95  CE        12.8260    9.3080   12.6890 C.3   177  LYS177      0.1093
     96  NZ        12.6050   10.0380   11.4130 N.3   177  LYS177     -0.1314
     97  N         12.5330   -0.4030    9.4690 N.3   204  GLY204     -0.1210
     98  CA        13.1900   -1.1330   10.5430 C.3   204  GLY204      0.1956
     99  C         14.7240   -0.9100   10.2930 C.2   204  GLY204      0.2612
    100  O         15.3130    0.0620   10.8210 O.2   204  GLY204     -0.2717
    101  N         15.3120   -1.7620    9.4570 N.am  205  LEU205     -0.1965
    102  CA        16.7500   -1.5450    9.1100 C.3   205  LEU205      0.1728
    103  C         16.7650   -1.4280    7.5930 C.2   205  LEU205      0.2616
    104  O         16.1770   -2.3260    6.9230 O.2   205  LEU205     -0.2715
    105  CB        17.6240   -2.7800    9.4600 C.3   205  LEU205      0.0311
    106  CG        17.6970   -3.1220   10.9370 C.3   205  LEU205      0.0022
    107  CD1       18.5740   -4.3540   11.1290 C.3   205  LEU205      0.0001
    108  CD2       18.1870   -1.9230   11.7510 C.3   205  LEU205      0.0001
    109  N         17.3090   -0.3540    7.0280 N.am  206  SER206     -0.1950
    110  CA        17.3270   -0.1340    5.6010 C.3   206  SER206      0.1924
    111  C         18.6680    0.4550    5.0980 C.2   206  SER206      0.2314
    112  O         19.2140    1.3660    5.7320 O.2   206  SER206     -0.2863
    113  CB        16.3070    0.9660    5.1900 C.3   206  SER206      0.2116
    114  OG        14.9920    0.5590    5.5180 O.3   206  SER206     -0.2180
    115  N         21.8230   -0.4090    5.0530 N.3   208  LEU208     -0.1245
    116  CA        22.8110   -0.3700    6.1130 C.3   208  LEU208      0.1561
    117  C         24.2670   -0.2340    5.6150 C.2   208  LEU208      0.2260
    118  O         25.1040    0.2730    6.3700 O.2   208  LEU208     -0.2867
    119  CB        22.8390   -1.6220    7.0000 C.3   208  LEU208      0.0270
    120  CG        21.6180   -1.8510    7.9290 C.3   208  LEU208      0.0019
    121  CD1       21.8420   -3.0720    8.8130 C.3   208  LEU208      0.0001
    122  CD2       21.4340   -0.6330    8.8120 C.3   208  LEU208      0.0001
    123  N         26.3450    2.9970    6.1960 N.3   211  ASP211     -0.1225
    124  CA        26.4640    3.4140    7.5760 C.3   211  ASP211      0.1805
    125  C         27.1900    2.4880    8.5340 C.2   211  ASP211      0.2597
    126  O         27.5080    2.8870    9.6650 O.2   211  ASP211     -0.2718
    127  CB        25.0410    3.6130    8.1400 C.3   211  ASP211      0.1424
    128  CG        24.1390    4.3680    7.1920 C.2   211  ASP211      0.3668
    129  OD1       24.5940    4.8780    6.1520 O.co2 211  ASP211     -0.2456
    130  OD2       22.9330    4.4620    7.4870 O.co2 211  ASP211     -0.2456
    131  N         27.4300    1.2370    8.1470 N.am  212  MET212     -0.1979
    132  CA        28.1000    0.3020    9.0350 C.3   212  MET212      0.1605
    133  C         29.2030   -0.4830    8.3130 C.2   212  MET212      0.2287
    134  O         29.0650   -0.8030    7.1360 O.2   212  MET212     -0.2864
    135  CB        27.1290   -0.7430    9.5830 C.3   212  MET212      0.0413
    136  CG        25.8470   -0.2930   10.2530 C.3   212  MET212      0.0598
    137  SD        25.0340   -1.7080   11.0190 S.3   212  MET212     -0.1393
    138  CE        23.7500   -0.8950   11.9840 C.3   212  MET212      0.0692
    139  N         29.8520   -5.3850   11.2660 N.3   216  VAL216     -0.1245
    140  CA        28.7060   -4.8850   12.0500 C.3   216  VAL216      0.1561
    141  C         27.4450   -4.9760   11.1830 C.2   216  VAL216      0.2260
    142  O         26.3710   -5.3690   11.6220 O.2   216  VAL216     -0.2867
    143  CB        28.9140   -3.4380   12.5260 C.3   216  VAL216      0.0252
    144  CG1       27.6550   -2.8850   13.1920 C.3   216  VAL216      0.0019
    145  CG2       30.0770   -3.4100   13.5210 C.3   216  VAL216      0.0019
    146  N         23.9440   -7.0880   12.2570 N.3   220  HIS220     -0.1241
    147  CA        22.6270   -6.4770   12.4980 C.3   220  HIS220      0.1621
    148  C         21.5430   -7.1010   11.5960 C.2   220  HIS220      0.2264
    149  O         20.4480   -7.5140   11.9740 O.2   220  HIS220     -0.2867
    150  CB        22.6850   -5.0060   12.0220 C.3   220  HIS220      0.0745
    151  CG        23.0480   -4.0620   13.1150 C.ar  220  HIS220      0.0817
    152  ND1       24.2860   -4.0740   13.7180 N.ar  220  HIS220     -0.2268
    153  CD2       22.3270   -3.0850   13.7140 C.ar  220  HIS220      0.1154
    154  CE1       24.3120   -3.1370   14.6490 C.ar  220  HIS220      0.1986
    155  NE2       23.1430   -2.5220   14.6620 N.ar  220  HIS220     -0.2212
@<TRIPOS>BOND
     1     4     3    2
     2     1     2    1
     3     3     2    1
     4     2     5    1
     5     5     6    1
     6     6     7    1
     7     7     8    1
     8    10     9    1
     9     8     9    2
    10     9    11    1
    11   115   116    1
    12   111   110    1
    13   111   112    2
    14   113   114    1
    15   113   110    1
    16   110   109    1
    17   117   116    1
    18   117   118    2
    19   116   119    1
    20   129   128   ar
    21   123   124    1
    22   104   103    2
    23   119   120    1
    24   109   103   am
    25   134   133    2
    26   128   130   ar
    27   128   127    1
    28   124   127    1
    29   124   125    1
    30   103   102    1
    31   120   122    1
    32   120   121    1
    33   131   125   am
    34   131   132    1
    35   133   132    1
    36    12    13    1
    37   125   126    2
    38   132   135    1
    39   102   101    1
    40   102   105    1
    41    15    14    2
    42   101    99   am
    43   105   106    1
    44    97    98    1
    45   135   136    1
    46    13    16    1
    47    13    14    1
    48    16    17    1
    49   136   137    1
    50    99    98    1
    51    99   100    2
    52   106   107    1
    53   106   108    1
    54   137   138    1
    55   141   142    2
    56   141   140    1
    57   139   140    1
    58    96    95    1
    59   148   149    2
    60   148   147    1
    61   150   147    1
    62   150   151    1
    63   140   143    1
    64   146   147    1
    65   143   144    1
    66   143   145    1
    67    36    37    1
    68    95    94    1
    69    37    38    1
    70    37    40    1
    71    25    27   ar
    72    25    23   ar
    73    22    23    1
    74    22    19    1
    75    18    19    1
    76   151   153   ar
    77   151   152   ar
    78    27    28   ar
    79    23    24   ar
    80    38    39    2
    81    21    20    2
    82    87    86    1
    83    40    41    1
    84   153   155   ar
    85   152   154   ar
    86    94    93    1
    87    19    20    1
    88    42    41   ar
    89    41    43   ar
    90    28    26   ar
    91    84    86   ar
    92    84    82   ar
    93    24    26   ar
    94    86    85   ar
    95   154   155   ar
    96    93    92    1
    97    82    81   ar
    98    85    83   ar
    99    92    89    1
   100    89    90    1
   101    89    88    1
   102    91    90    2
   103    81    83   ar
   104    81    80    1
   105    75    74    1
   106    73    74   ar
   107    73    71   ar
   108    51    49    1
   109    74    72   ar
   110    80    77    1
   111    71    69   ar
   112    79    78    2
   113    35    29    1
   114    35    34    1
   115    77    78    1
   116    77    76    1
   117    29    30    1
   118    50    49    1
   119    49    48    1
   120    72    70   ar
   121    48    45    1
   122    69    70   ar
   123    69    68    1
   124    34    33    1
   125    68    65    1
   126    30    33    1
   127    30    31    1
   128    45    44    1
   129    45    46    1
   130    32    31    2
   131    67    66    2
   132    65    66    1
   133    65    64    1
   134    46    47    2
   135    46    52   am
   136    64    62   am
   137    55    54    2
   138    52    53    1
   139    63    62    2
   140    62    61    1
   141    54    53    1
   142    54    60   am
   143    53    56    1
   144    61    60    1
   145    56    57    1
   146    57    59    1
   147    57    58    1
