@<TRIPOS>MOLECULE
tmp/1e7yA00.pdb
 144 137 0 0 0
SMALL
GASTEIGER

@<TRIPOS>ATOM
      1  N         86.2520   -0.7450   29.5510 N.3   148  LYS148     -0.1245
      2  CA        84.9950   -0.3390   30.1720 C.3   148  LYS148      0.1561
      3  C         85.0470   -0.7180   31.6560 C.2   148  LYS148      0.2260
      4  O         85.6060   -1.7600   32.0020 O.2   148  LYS148     -0.2867
      5  CB        83.8340   -1.0660   29.4660 C.3   148  LYS148      0.0271
      6  CG        82.5460   -1.2030   30.2810 C.3   148  LYS148      0.0035
      7  CD        81.5480   -2.2000   29.6770 C.3   148  LYS148      0.0206
      8  CE        82.1170   -3.6210   29.5520 C.3   148  LYS148      0.1093
      9  NZ        82.8850   -3.8390   28.2810 N.3   148  LYS148     -0.1314
     10  N         82.4690   -1.6150   22.6590 N.3   178  HIS178     -0.1226
     11  CA        82.3300   -2.6440   21.6350 C.3   178  HIS178      0.1752
     12  C         81.1570   -2.5020   20.6660 C.2   178  HIS178      0.2596
     13  O         81.1990   -3.0460   19.5630 O.2   178  HIS178     -0.2718
     14  CB        82.4560   -4.0640   22.2260 C.3   178  HIS178      0.0759
     15  CG        81.1670   -4.6550   22.7080 C.ar  178  HIS178      0.0818
     16  ND1       80.7540   -4.5810   24.0190 N.ar  178  HIS178     -0.2268
     17  CD2       80.2260   -5.3850   22.0600 C.ar  178  HIS178      0.1154
     18  CE1       79.6150   -5.2300   24.1640 C.ar  178  HIS178      0.1986
     19  NE2       79.2740   -5.7270   22.9900 N.ar  178  HIS178     -0.2212
     20  N         80.1350   -1.7400   21.0460 N.am  179  TYR179     -0.1976
     21  CA        79.0040   -1.5340   20.1510 C.3   179  TYR179      0.1639
     22  C         79.4200   -0.6360   18.9950 C.2   179  TYR179      0.2290
     23  O         78.9770   -0.8330   17.8700 O.2   179  TYR179     -0.2864
     24  CB        77.7890   -0.9760   20.8890 C.3   179  TYR179      0.0560
     25  CG        76.8460   -2.0660   21.3570 C.ar  179  TYR179     -0.0198
     26  CD1       77.2620   -3.0300   22.2760 C.ar  179  TYR179     -0.0009
     27  CD2       75.5430   -2.1500   20.8640 C.ar  179  TYR179     -0.0009
     28  CE1       76.4080   -4.0520   22.6910 C.ar  179  TYR179      0.0417
     29  CE2       74.6820   -3.1680   21.2720 C.ar  179  TYR179      0.0417
     30  CZ        75.1180   -4.1160   22.1860 C.ar  179  TYR179      0.1957
     31  OH        74.2650   -5.1210   22.5890 O.3   179  TYR179     -0.2866
     32  N         80.9600   -2.6100   16.1800 N.3   182  LYS182     -0.1245
     33  CA        80.1160   -3.4910   15.3650 C.3   182  LYS182      0.1561
     34  C         79.9340   -2.9770   13.9350 C.2   182  LYS182      0.2260
     35  O         79.3940   -1.8920   13.7310 O.2   182  LYS182     -0.2867
     36  CB        78.7440   -3.6400   16.0100 C.3   182  LYS182      0.0271
     37  CG        78.7820   -4.2360   17.3940 C.3   182  LYS182      0.0035
     38  CD        77.3970   -4.2800   18.0030 C.3   182  LYS182      0.0206
     39  CE        77.4250   -5.0080   19.3240 C.3   182  LYS182      0.1093
     40  NZ        77.9100   -6.4000   19.1440 N.3   182  LYS182     -0.1314
     41  N         67.7200   -7.9510   24.7560 N.3   216  GLU216     -0.1245
     42  CA        68.4380   -9.1640   25.1280 C.3   216  GLU216      0.1567
     43  C         67.4670  -10.1490   25.7360 C.2   216  GLU216      0.2260
     44  O         66.5750   -9.7770   26.5000 O.2   216  GLU216     -0.2867
     45  CB        69.5180   -8.8710   26.1580 C.3   216  GLU216      0.0388
     46  CG        70.5610   -7.8770   25.7300 C.3   216  GLU216      0.1160
     47  CD        71.5860   -7.6490   26.8170 C.2   216  GLU216      0.3649
     48  OE1       72.6560   -8.2910   26.7630 O.co2 216  GLU216     -0.2457
     49  OE2       71.3130   -6.8440   27.7330 O.co2 216  GLU216     -0.2457
     50  N         68.6790  -12.8040   27.4710 N.3   218  LEU218     -0.1245
     51  CA        69.3700  -13.2880   28.6670 C.3   218  LEU218      0.1561
     52  C         68.9920  -12.4840   29.9020 C.2   218  LEU218      0.2260
     53  O         68.6460  -11.3050   29.8000 O.2   218  LEU218     -0.2867
     54  CB        70.8840  -13.1870   28.4760 C.3   218  LEU218      0.0270
     55  CG        71.5230  -13.9820   27.3400 C.3   218  LEU218      0.0019
     56  CD1       72.9670  -13.5460   27.1710 C.3   218  LEU218      0.0001
     57  CD2       71.4380  -15.4710   27.6290 C.3   218  LEU218      0.0001
     58  N         76.5240  -12.3340   36.4960 N.3   223  ARG223     -0.1245
     59  CA        77.0600  -11.1440   37.1610 C.3   223  ARG223      0.1563
     60  C         76.1470  -10.1810   37.9310 C.2   223  ARG223      0.2260
     61  O         76.3730   -8.9670   37.9090 O.2   223  ARG223     -0.2867
     62  CB        77.9120  -10.3640   36.1510 C.3   223  ARG223      0.0307
     63  CG        77.3920  -10.4450   34.7160 C.3   223  ARG223      0.0489
     64  CD        78.4160   -9.9460   33.7150 C.3   223  ARG223      0.2205
     65  NE        78.0420  -10.2910   32.3440 N.pl3 223  ARG223     -0.0865
     66  CZ        78.6770   -9.8580   31.2580 C.cat 223  ARG223      0.5346
     67  NH1       79.7280   -9.0540   31.3690 N.pl3 223  ARG223      0.1354
     68  NH2       78.2610  -10.2310   30.0540 N.pl3 223  ARG223      0.1354
     69  N         77.7400   -7.2130   40.3930 N.3   226  TYR226     -0.1227
     70  CA        78.1290   -5.9630   39.7560 C.3   226  TYR226      0.1736
     71  C         76.8860   -5.2860   39.1500 C.2   226  TYR226      0.2595
     72  O         76.6650   -4.0840   39.3280 O.2   226  TYR226     -0.2718
     73  CB        79.1960   -6.2270   38.6720 C.3   226  TYR226      0.0548
     74  CG        78.9690   -5.4700   37.3750 C.ar  226  TYR226     -0.0200
     75  CD1       79.2880   -4.1150   37.2690 C.ar  226  TYR226     -0.0009
     76  CD2       78.3470   -6.0890   36.2810 C.ar  226  TYR226     -0.0009
     77  CE1       78.9820   -3.3870   36.1120 C.ar  226  TYR226      0.0417
     78  CE2       78.0350   -5.3700   35.1170 C.ar  226  TYR226      0.0417
     79  CZ        78.3530   -4.0190   35.0420 C.ar  226  TYR226      0.1957
     80  OH        78.0190   -3.2920   33.9190 O.3   226  TYR226     -0.2866
     81  N         76.0620   -6.0780   38.4680 N.am  227  TYR227     -0.1976
     82  CA        74.8630   -5.5690   37.8050 C.3   227  TYR227      0.1639
     83  C         73.8140   -4.9190   38.7120 C.2   227  TYR227      0.2290
     84  O         73.0490   -4.0690   38.2510 O.2   227  TYR227     -0.2864
     85  CB        74.2090   -6.6780   36.9630 C.3   227  TYR227      0.0560
     86  CG        73.1970   -6.1810   35.9500 C.ar  227  TYR227     -0.0198
     87  CD1       73.6110   -5.6460   34.7330 C.ar  227  TYR227     -0.0009
     88  CD2       71.8260   -6.2270   36.2170 C.ar  227  TYR227     -0.0009
     89  CE1       72.6860   -5.1650   33.8020 C.ar  227  TYR227      0.0417
     90  CE2       70.8900   -5.7500   35.2920 C.ar  227  TYR227      0.0417
     91  CZ        71.3280   -5.2170   34.0880 C.ar  227  TYR227      0.1957
     92  OH        70.4260   -4.7120   33.1760 O.3   227  TYR227     -0.2866
     93  N         74.7750   -0.0590   32.3520 N.3   235  ASP235     -0.1225
     94  CA        75.2860   -1.2190   31.6280 C.3   235  ASP235      0.1805
     95  C         75.1210   -1.1080   30.1040 C.2   235  ASP235      0.2597
     96  O         76.0520   -1.4120   29.3510 O.2   235  ASP235     -0.2718
     97  CB        74.6000   -2.4860   32.1550 C.3   235  ASP235      0.1424
     98  CG        75.1360   -3.7580   31.5230 C.2   235  ASP235      0.3668
     99  OD1       76.2930   -4.1280   31.8180 O.co2 235  ASP235     -0.2456
    100  OD2       74.3880   -4.4040   30.7510 O.co2 235  ASP235     -0.2456
    101  N         73.9520   -0.6530   29.6460 N.am  236  MET236     -0.1979
    102  CA        73.6950   -0.5370   28.2060 C.3   236  MET236      0.1605
    103  C         73.3280    0.8520   27.6720 C.2   236  MET236      0.2287
    104  O         73.6910    1.1990   26.5420 O.2   236  MET236     -0.2864
    105  CB        72.6090   -1.5300   27.7830 C.3   236  MET236      0.0413
    106  CG        72.9750   -3.0060   27.9320 C.3   236  MET236      0.0598
    107  SD        74.1500   -3.6580   26.7210 S.3   236  MET236     -0.1393
    108  CE        73.0590   -4.2890   25.4500 C.3   236  MET236      0.0692
    109  N         76.5360    2.0960   25.3240 N.3   240  HIS240     -0.1241
    110  CA        76.1250    1.5690   24.0300 C.3   240  HIS240      0.1621
    111  C         75.0800    2.3980   23.3000 C.2   240  HIS240      0.2264
    112  O         75.3200    2.8670   22.1870 O.2   240  HIS240     -0.2867
    113  CB        75.6590    0.1290   24.2070 C.3   240  HIS240      0.0745
    114  CG        76.6900   -0.7480   24.8410 C.ar  240  HIS240      0.0817
    115  ND1       78.0230   -0.7000   24.4890 N.ar  240  HIS240     -0.2268
    116  CD2       76.5940   -1.6790   25.8190 C.ar  240  HIS240      0.1154
    117  CE1       78.7020   -1.5640   25.2200 C.ar  240  HIS240      0.1986
    118  NE2       77.8580   -2.1690   26.0370 N.ar  240  HIS240     -0.2212
    119  N         66.8390   -6.8230   29.8230 N.3   338  LYS338     -0.1245
    120  CA        67.1530   -8.2400   29.8490 C.3   338  LYS338      0.1561
    121  C         65.8310   -9.0060   29.9430 C.2   338  LYS338      0.2260
    122  O         64.8050   -8.4500   30.3470 O.2   338  LYS338     -0.2867
    123  CB        68.0610   -8.5690   31.0490 C.3   338  LYS338      0.0271
    124  CG        69.3390   -7.7390   31.1160 C.3   338  LYS338      0.0035
    125  CD        70.4380   -8.4510   31.8820 C.3   338  LYS338      0.0206
    126  CE        71.5230   -9.0160   30.9550 C.3   338  LYS338      0.1093
    127  NZ        72.3610   -7.9550   30.3310 N.3   338  LYS338     -0.1314
    128  N         66.7210  -11.2440   21.0060 N.3   343  LYS343     -0.1245
    129  CA        68.0010  -10.5560   21.0010 C.3   343  LYS343      0.1561
    130  C         67.9050   -9.6790   19.7620 C.2   343  LYS343      0.2260
    131  O         67.6340  -10.1760   18.6620 O.2   343  LYS343     -0.2867
    132  CB        69.1460  -11.5650   20.8460 C.3   343  LYS343      0.0271
    133  CG        70.4990  -10.9430   20.5380 C.3   343  LYS343      0.0035
    134  CD        70.9350  -10.0080   21.6510 C.3   343  LYS343      0.0206
    135  CE        72.2040   -9.2610   21.2920 C.3   343  LYS343      0.1093
    136  NZ        72.4400   -8.1800   22.2860 N.3   343  LYS343     -0.1314
    137  N         72.3090   -6.6200   15.3510 N.3   374  ASP374     -0.1239
    138  CA        72.4200   -7.9410   15.9660 C.3   374  ASP374      0.1674
    139  C         71.0220   -8.5440   15.8450 C.2   374  ASP374      0.2266
    140  O         70.0270   -7.8190   15.9650 O.2   374  ASP374     -0.2867
    141  CB        72.7970   -7.8450   17.4590 C.3   374  ASP374      0.1410
    142  CG        74.1800   -7.2660   17.6870 C.2   374  ASP374      0.3668
    143  OD1       75.1470   -7.7380   17.0540 O.co2 374  ASP374     -0.2456
    144  OD2       74.3040   -6.3370   18.5120 O.co2 374  ASP374     -0.2456
@<TRIPOS>BOND
     1    35    34    2
     2    34    33    1
     3   137   138    1
     4    33    36    1
     5    33    32    1
     6   139   140    2
     7   139   138    1
     8   138   141    1
     9    36    37    1
    10   143   142   ar
    11    37    38    1
    12   141   142    1
    13   142   144   ar
    14    23    22    2
    15    38    39    1
    16   131   130    2
    17    22    21    1
    18    40    39    1
    19    13    12    2
    20   130   129    1
    21    21    24    1
    22    21    20    1
    23   133   132    1
    24   133   134    1
    25    12    20   am
    26    12    11    1
    27   132   129    1
    28    27    29   ar
    29    27    25   ar
    30    24    25    1
    31   129   128    1
    32    29    30   ar
    33   135   134    1
    34   135   136    1
    35    25    26   ar
    36    11    14    1
    37    11    10    1
    38    17    15   ar
    39    17    19   ar
    40    30    31    1
    41    30    28   ar
    42   112   111    2
    43    14    15    1
    44    26    28   ar
    45    15    16   ar
    46    19    18   ar
    47   111   110    1
    48    16    18   ar
    49   110   113    1
    50   110   109    1
    51   113   114    1
    52   115   114   ar
    53   115   117   ar
    54    41    42    1
    55   114   116   ar
    56    42    43    1
    57    42    45    1
    58   117   118   ar
    59   108   107    1
    60    46    45    1
    61    46    47    1
    62    43    44    2
    63   116   118   ar
    64   104   103    2
    65   107   106    1
    66    48    47   ar
    67    47    49   ar
    68    56    55    1
    69    55    57    1
    70    55    54    1
    71    50    51    1
    72   103   102    1
    73   105   106    1
    74   105   102    1
    75   102   101    1
    76     9     8    1
    77    54    51    1
    78    51    52    1
    79    96    95    2
    80     5     2    1
    81     5     6    1
    82     1     2    1
    83     8     7    1
    84   101    95   am
    85     7     6    1
    86    53    52    2
    87   119   120    1
    88   120   121    1
    89   120   123    1
    90   121   122    2
    91    68    66    1
    92    95    94    1
    93     2     3    1
    94   127   126    1
    95   100    98   ar
    96   126   125    1
    97   123   124    1
    98   124   125    1
    99    66    67    1
   100    66    65    2
   101    98    99   ar
   102    98    97    1
   103    94    97    1
   104    94    93    1
   105     3     4    2
   106    65    64    1
   107    92    91    1
   108    64    63    1
   109    89    91   ar
   110    89    87   ar
   111    80    79    1
   112    91    90   ar
   113    63    62    1
   114    87    86   ar
   115    79    78   ar
   116    79    77   ar
   117    78    76   ar
   118    90    88   ar
   119    86    88   ar
   120    86    85    1
   121    77    75   ar
   122    62    59    1
   123    76    74   ar
   124    58    59    1
   125    85    82    1
   126    59    60    1
   127    75    74   ar
   128    74    73    1
   129    82    81    1
   130    82    83    1
   131    61    60    2
   132    84    83    2
   133    81    71   am
   134    73    70    1
   135    71    72    2
   136    71    70    1
   137    70    69    1
