@<TRIPOS>MOLECULE
tmp/1e82A00.pdb
 231 215 0 0 0
SMALL
GASTEIGER

@<TRIPOS>ATOM
      1  N         31.3270    4.3780   -2.5710 N.3    10  ILE10      -0.1245
      2  CA        32.5040    4.7920   -3.3190 C.3    10  ILE10       0.1561
      3  C         32.1920    4.9900   -4.8010 C.2    10  ILE10       0.2260
      4  O         33.0260    5.5380   -5.5260 O.2    10  ILE10      -0.2867
      5  CB        33.6760    3.8160   -3.1830 C.3    10  ILE10       0.0252
      6  CG1       33.3420    2.4610   -3.8000 C.3    10  ILE10       0.0019
      7  CG2       34.1420    3.6850   -1.7510 C.3    10  ILE10       0.0019
      8  CD1       34.5280    1.5320   -3.9400 C.3    10  ILE10       0.0001
      9  N         27.4770    2.1210   -7.8900 N.3    13  LEU13      -0.1245
     10  CA        26.9560    0.7640   -7.7540 C.3    13  LEU13       0.1561
     11  C         26.8520    0.3540   -6.2890 C.2    13  LEU13       0.2260
     12  O         26.3390   -0.7270   -5.9910 O.2    13  LEU13      -0.2867
     13  CB        27.8540   -0.2260   -8.5050 C.3    13  LEU13       0.0270
     14  CG        27.7490   -0.1680  -10.0330 C.3    13  LEU13       0.0019
     15  CD1       28.6750   -1.1840  -10.6770 C.3    13  LEU13       0.0001
     16  CD2       26.3090   -0.3760  -10.4670 C.3    13  LEU13       0.0001
     17  N         29.4870   -0.3770   -4.4520 N.3    15  ASP15      -0.1225
     18  CA        30.4060   -1.5050   -4.3240 C.3    15  ASP15       0.1805
     19  C         30.9910   -1.5800   -2.9150 C.2    15  ASP15       0.2597
     20  O         31.3330   -2.6570   -2.4310 O.2    15  ASP15      -0.2718
     21  CB        31.5390   -1.3850   -5.3480 C.3    15  ASP15       0.1424
     22  CG        31.0920   -1.8000   -6.7390 C.2    15  ASP15       0.3668
     23  OD1       30.3320   -2.7850   -6.8410 O.co2  15  ASP15      -0.2456
     24  OD2       31.5020   -1.1390   -7.7140 O.co2  15  ASP15      -0.2456
     25  N         31.1570   -0.4160   -2.2990 N.am   16  ALA16      -0.1979
     26  CA        31.6610   -0.2980   -0.9400 C.3    16  ALA16       0.1597
     27  C         31.3400    1.0790   -0.3580 C.2    16  ALA16       0.2287
     28  O         30.8800    1.9630   -1.0820 O.2    16  ALA16      -0.2864
     29  CB        33.1550   -0.5650   -0.8850 C.3    16  ALA16       0.0319
     30  N         37.0020    1.7660    5.2220 N.3    33  ASP33      -0.1239
     31  CA        35.9020    0.8390    4.9420 C.3    33  ASP33       0.1674
     32  C         35.5750    0.0340    6.2120 C.2    33  ASP33       0.2266
     33  O         36.4090   -0.7670    6.6330 O.2    33  ASP33      -0.2867
     34  CB        36.3460   -0.1370    3.8380 C.3    33  ASP33       0.1410
     35  CG        35.2490   -1.0150    3.3000 C.2    33  ASP33       0.3668
     36  OD1       34.1760   -1.1370    3.9220 O.co2  33  ASP33      -0.2456
     37  OD2       35.4490   -1.6150    2.2170 O.co2  33  ASP33      -0.2456
     38  N         34.3200   -2.7750    8.2950 N.3    35  ASP35      -0.1239
     39  CA        34.1660   -4.1790    7.9110 C.3    35  ASP35       0.1674
     40  C         33.7900   -5.0430    9.1040 C.2    35  ASP35       0.2266
     41  O         34.6430   -5.3780    9.9310 O.2    35  ASP35      -0.2867
     42  CB        35.4830   -4.6760    7.2940 C.3    35  ASP35       0.1410
     43  CG        35.4230   -6.1140    6.8390 C.2    35  ASP35       0.3668
     44  OD1       34.3070   -6.6390    6.6520 O.co2  35  ASP35      -0.2456
     45  OD2       36.4990   -6.7250    6.6660 O.co2  35  ASP35      -0.2456
     46  N         33.3030   -8.0060    9.0330 N.3    37  GLY37      -0.1225
     47  CA        33.7630   -9.3490    8.7390 C.3    37  GLY37       0.1811
     48  C         35.2380   -9.5470    9.0280 C.2    37  GLY37       0.2280
     49  O         35.7970  -10.6070    8.7380 O.2    37  GLY37      -0.2866
     50  N         42.1890  -11.4880    2.5550 N.3    79  TYR79      -0.1227
     51  CA        40.7330  -11.4880    2.5610 C.3    79  TYR79       0.1736
     52  C         40.1530  -12.5300    1.6220 C.2    79  TYR79       0.2596
     53  O         40.8540  -13.0780    0.7710 O.2    79  TYR79      -0.2718
     54  CB        40.1960  -10.0930    2.2230 C.3    79  TYR79       0.0548
     55  CG        40.6400   -9.0620    3.2460 C.ar   79  TYR79      -0.0200
     56  CD1       39.9100   -8.8650    4.4120 C.ar   79  TYR79      -0.0009
     57  CD2       41.8020   -8.3310    3.0620 C.ar   79  TYR79      -0.0009
     58  CE1       40.3170   -7.9430    5.3600 C.ar   79  TYR79       0.0417
     59  CE2       42.2190   -7.4070    4.0070 C.ar   79  TYR79       0.0417
     60  CZ        41.4740   -7.2230    5.1510 C.ar   79  TYR79       0.1957
     61  OH        41.8850   -6.3080    6.0930 O.3    79  TYR79      -0.2866
     62  N         38.8830  -12.8610    1.8380 N.am   80  GLY80      -0.1942
     63  CA        38.2090  -13.8400    1.0030 C.3    80  GLY80       0.2014
     64  C         38.2520  -13.4170   -0.4550 C.2    80  GLY80       0.2638
     65  O         37.8750  -14.1750   -1.3430 O.2    80  GLY80      -0.2714
     66  N         38.7200  -12.1960   -0.6610 N.am   81  ASP81      -0.1971
     67  CA        38.9050  -11.5740   -1.9640 C.3    81  ASP81       0.1709
     68  C         40.1570  -12.1350   -2.6530 C.2    81  ASP81       0.2293
     69  O         40.3320  -11.9820   -3.8580 O.2    81  ASP81      -0.2864
     70  CB        39.1110  -10.0530   -1.7700 C.3    81  ASP81       0.1436
     71  CG        37.9880   -9.2390   -2.3680 C.2    81  ASP81       0.3671
     72  OD1       37.1580   -9.8070   -3.1070 O.co2  81  ASP81      -0.2456
     73  OD2       37.9350   -8.0200   -2.0980 O.co2  81  ASP81      -0.2456
     74  N         42.6910  -10.7040   -1.6360 N.3    83  SER83      -0.1217
     75  CA        43.3740   -9.4790   -1.2480 C.3    83  SER83       0.1889
     76  C         44.3010   -9.7210   -0.0560 C.2    83  SER83       0.2288
     77  O         43.9660  -10.4940    0.8440 O.2    83  SER83      -0.2866
     78  CB        42.3400   -8.4030   -0.8700 C.3    83  SER83       0.2089
     79  OG        41.4530   -8.1560   -1.9440 O.3    83  SER83      -0.2183
     80  N         45.1650   -5.0920   -5.8610 N.3   115  SER115     -0.1202
     81  CA        43.7480   -4.7590   -5.7210 C.3   115  SER115      0.2020
     82  C         43.5640   -3.4880   -4.9000 C.2   115  SER115      0.2618
     83  O         42.7500   -2.6310   -5.2410 O.2   115  SER115     -0.2717
     84  CB        42.9870   -5.9190   -5.0820 C.3   115  SER115      0.2103
     85  OG        42.7100   -5.6700   -3.7160 O.3   115  SER115     -0.2182
     86  N         44.3330   -3.3570   -3.8220 N.am  116  PHE116     -0.1975
     87  CA        44.2500   -2.1870   -2.9600 C.3   116  PHE116      0.1639
     88  C         44.8180   -0.9480   -3.6370 C.2   116  PHE116      0.2290
     89  O         44.1830    0.1070   -3.6490 O.2   116  PHE116     -0.2864
     90  CB        44.9690   -2.4450   -1.6320 C.3   116  PHE116      0.0560
     91  CG        44.1980   -3.3610   -0.7200 C.ar  116  PHE116     -0.0200
     92  CD1       43.0270   -2.9270   -0.1240 C.ar  116  PHE116     -0.0042
     93  CD2       44.6320   -4.6520   -0.4860 C.ar  116  PHE116     -0.0042
     94  CE1       42.3000   -3.7580    0.7060 C.ar  116  PHE116     -0.0003
     95  CE2       43.9120   -5.4870    0.3470 C.ar  116  PHE116     -0.0003
     96  CZ        42.7400   -5.0490    0.9310 C.ar  116  PHE116     -0.0000
     97  N         42.6020    0.7870   -5.8950 N.3   119  ASP119     -0.1239
     98  CA        41.4080    1.3810   -5.2850 C.3   119  ASP119      0.1674
     99  C         41.7690    2.6820   -4.5650 C.2   119  ASP119      0.2266
    100  O         42.1170    2.6530   -3.3840 O.2   119  ASP119     -0.2867
    101  CB        40.8250    0.3880   -4.2630 C.3   119  ASP119      0.1410
    102  CG        39.3160    0.3240   -4.3140 C.2   119  ASP119      0.3668
    103  OD1       38.6900    1.3830   -4.5290 O.co2 119  ASP119     -0.2456
    104  OD2       38.7660   -0.7830   -4.1390 O.co2 119  ASP119     -0.2456
    105  N         39.7270    4.0460   -1.1410 N.3   122  ILE122     -0.1245
    106  CA        39.7970    3.3980    0.1680 C.3   122  ILE122      0.1561
    107  C         41.1950    3.5050    0.7630 C.2   122  ILE122      0.2260
    108  O         42.1690    3.0280    0.1750 O.2   122  ILE122     -0.2867
    109  CB        39.3760    1.9200    0.0840 C.3   122  ILE122      0.0252
    110  CG1       37.9100    1.8190   -0.3610 C.3   122  ILE122      0.0019
    111  CG2       39.5670    1.2320    1.4300 C.3   122  ILE122      0.0019
    112  CD1       37.4150    0.4190   -0.6100 C.3   122  ILE122      0.0001
    113  N         41.0530   -0.0850    6.2770 N.3   125  LEU125     -0.1245
    114  CA        39.8880   -0.7730    6.8220 C.3   125  LEU125      0.1561
    115  C         39.7780   -0.5550    8.3320 C.2   125  LEU125      0.2260
    116  O         40.7840   -0.4790    9.0380 O.2   125  LEU125     -0.2867
    117  CB        39.9970   -2.2820    6.5440 C.3   125  LEU125      0.0270
    118  CG        39.4010   -2.7450    5.2120 C.3   125  LEU125      0.0019
    119  CD1       40.3160   -2.3210    4.0720 C.3   125  LEU125      0.0001
    120  CD2       39.1990   -4.2510    5.2250 C.3   125  LEU125      0.0001
    121  N         32.8010  -14.2150   14.1190 N.3   194  PHE194     -0.1241
    122  CA        31.9900  -13.3940   13.2280 C.3   194  PHE194      0.1605
    123  C         30.6470  -13.0530   13.8710 C.2   194  PHE194      0.2264
    124  O         30.2120  -13.7020   14.8210 O.2   194  PHE194     -0.2867
    125  CB        31.7390  -14.1420   11.9070 C.3   194  PHE194      0.0534
    126  CG        32.9770  -14.3980   11.1030 C.ar  194  PHE194     -0.0203
    127  CD1       33.6680  -13.3560   10.5100 C.ar  194  PHE194     -0.0042
    128  CD2       33.4510  -15.6870   10.9200 C.ar  194  PHE194     -0.0042
    129  CE1       34.8110  -13.5870    9.7730 C.ar  194  PHE194     -0.0003
    130  CE2       34.5950  -15.9270   10.1850 C.ar  194  PHE194     -0.0003
    131  CZ        35.2810  -14.8770    9.6050 C.ar  194  PHE194     -0.0000
    132  N         26.8050  -14.8410    8.0170 N.3   217  ILE217     -0.1245
    133  CA        27.3660  -13.7500    8.8150 C.3   217  ILE217      0.1561
    134  C         26.9220  -12.3950    8.2750 C.2   217  ILE217      0.2260
    135  O         26.7830  -12.2120    7.0660 O.2   217  ILE217     -0.2867
    136  CB        28.9050  -13.8030    8.8340 C.3   217  ILE217      0.0252
    137  CG1       29.4620  -13.5880    7.4230 C.3   217  ILE217      0.0019
    138  CG2       29.3870  -15.1280    9.4050 C.3   217  ILE217      0.0019
    139  CD1       30.9530  -13.3700    7.3680 C.3   217  ILE217      0.0001
    140  N         27.9690   -9.0290    7.1850 N.3   219  ASP219     -0.1239
    141  CA        29.2800   -8.5220    6.7800 C.3   219  ASP219      0.1674
    142  C         29.1680   -7.2510    5.9560 C.2   219  ASP219      0.2266
    143  O         28.9710   -7.2980    4.7390 O.2   219  ASP219     -0.2867
    144  CB        30.0300   -9.6030    5.9910 C.3   219  ASP219      0.1410
    145  CG        31.4690   -9.2220    5.7080 C.2   219  ASP219      0.3668
    146  OD1       31.8760   -8.0930    6.0530 O.co2 219  ASP219     -0.2456
    147  OD2       32.1940  -10.0620    5.1350 O.co2 219  ASP219     -0.2456
    148  N         31.5240   -5.4810    5.0300 N.3   221  GLY221     -0.1210
    149  CA        32.6790   -5.3970    4.1630 C.3   221  GLY221      0.1956
    150  C         32.5720   -6.2010    2.8830 C.2   221  GLY221      0.2613
    151  O         33.5050   -6.2100    2.0730 O.2   221  GLY221     -0.2717
    152  N         31.4420   -6.8690    2.6900 N.am  222  THR222     -0.1938
    153  CA        31.1840   -7.6490    1.4820 C.3   222  THR222      0.2028
    154  C         30.0230   -7.0570    0.6940 C.2   222  THR222      0.2643
    155  O         28.9930   -6.6810    1.2590 O.2   222  THR222     -0.2714
    156  CB        30.8920   -9.1200    1.8170 C.3   222  THR222      0.1808
    157  OG1       32.0900   -9.7450    2.3000 O.3   222  THR222     -0.2208
    158  CG2       30.3950   -9.8740    0.5950 C.3   222  THR222      0.0379
    159  N         30.2310   -6.8540   -0.6040 N.am  223  THR223     -0.1936
    160  CA        29.2610   -6.1520   -1.4330 C.3   223  THR223      0.2028
    161  C         27.9640   -6.9340   -1.5850 C.2   223  THR223      0.2642
    162  O         26.8730   -6.3710   -1.4850 O.2   223  THR223     -0.2714
    163  CB        29.8330   -5.8640   -2.8380 C.3   223  THR223      0.1808
    164  OG1       31.1370   -5.2940   -2.7150 O.3   223  THR223     -0.2208
    165  CG2       28.9220   -4.9130   -3.5960 C.3   223  THR223      0.0379
    166  N         28.0810   -8.1920   -1.9980 N.am  224  LEU224     -0.1977
    167  CA        26.9490   -8.9780   -2.4430 C.3   224  LEU224      0.1596
    168  C         26.3940   -9.8770   -1.3450 C.2   224  LEU224      0.2287
    169  O         26.9490   -9.9900   -0.2550 O.2   224  LEU224     -0.2864
    170  CB        27.3390   -9.8350   -3.6590 C.3   224  LEU224      0.0297
    171  CG        28.0210   -9.0850   -4.8100 C.3   224  LEU224      0.0022
    172  CD1       28.3040  -10.0330   -5.9710 C.3   224  LEU224      0.0001
    173  CD2       27.1410   -7.9310   -5.2800 C.3   224  LEU224      0.0001
    174  N         25.6740  -13.7600   -0.5470 N.3   226  TYR226     -0.1241
    175  CA        26.0610  -15.1170   -0.9320 C.3   226  TYR226      0.1605
    176  C         25.2690  -16.1570   -0.1380 C.2   226  TYR226      0.2264
    177  O         25.4290  -16.2510    1.0790 O.2   226  TYR226     -0.2867
    178  CB        27.5620  -15.3240   -0.6800 C.3   226  TYR226      0.0534
    179  CG        28.4360  -14.4430   -1.5420 C.ar  226  TYR226     -0.0201
    180  CD1       28.7700  -13.1590   -1.1310 C.ar  226  TYR226     -0.0009
    181  CD2       28.9120  -14.8910   -2.7660 C.ar  226  TYR226     -0.0009
    182  CE1       29.5660  -12.3490   -1.9160 C.ar  226  TYR226      0.0417
    183  CE2       29.7080  -14.0850   -3.5610 C.ar  226  TYR226      0.0417
    184  CZ        30.0250  -12.8150   -3.1290 C.ar  226  TYR226      0.1957
    185  OH        30.8200  -12.0050   -3.9060 O.3   226  TYR226     -0.2866
    186  N         23.6200   -5.2080  -10.4250 N.3   280  PHE280     -0.1241
    187  CA        24.9340   -4.6080  -10.3180 C.3   280  PHE280      0.1605
    188  C         25.5080   -4.1660  -11.6410 C.2   280  PHE280      0.2264
    189  O         26.7140   -3.9240  -11.7640 O.2   280  PHE280     -0.2867
    190  CB        25.9020   -5.4630   -9.5150 C.3   280  PHE280      0.0534
    191  CG        25.7590   -5.2060   -8.0250 C.ar  280  PHE280     -0.0203
    192  CD1       24.6550   -5.6910   -7.3480 C.ar  280  PHE280     -0.0042
    193  CD2       26.6670   -4.4110   -7.3550 C.ar  280  PHE280     -0.0042
    194  CE1       24.4940   -5.4500   -5.9960 C.ar  280  PHE280     -0.0003
    195  CE2       26.4840   -4.1110   -6.0170 C.ar  280  PHE280     -0.0003
    196  CZ        25.4150   -4.6590   -5.3310 C.ar  280  PHE280     -0.0000
    197  N         25.4010   -8.0020  -13.9680 N.3   291  PHE291     -0.1241
    198  CA        25.8390   -8.8650  -12.8800 C.3   291  PHE291      0.1605
    199  C         24.8400   -8.8820  -11.7320 C.2   291  PHE291      0.2264
    200  O         24.3400   -7.8380  -11.3150 O.2   291  PHE291     -0.2867
    201  CB        27.2190   -8.4300  -12.3730 C.3   291  PHE291      0.0534
    202  CG        27.9270   -9.5310  -11.6240 C.ar  291  PHE291     -0.0203
    203  CD1       28.3400  -10.6690  -12.2920 C.ar  291  PHE291     -0.0042
    204  CD2       28.1280   -9.4380  -10.2610 C.ar  291  PHE291     -0.0042
    205  CE1       28.9830  -11.6930  -11.6200 C.ar  291  PHE291     -0.0003
    206  CE2       28.7460  -10.4700   -9.5750 C.ar  291  PHE291     -0.0003
    207  CZ        29.1820  -11.5920  -10.2550 C.ar  291  PHE291     -0.0000
    208  N         32.6950  -20.5550   -1.1840 N.3   300  ILE300     -0.1245
    209  CA        33.1940  -19.7070   -0.1050 C.3   300  ILE300      0.1561
    210  C         33.2590  -20.4650    1.2130 C.2   300  ILE300      0.2260
    211  O         34.1270  -20.2050    2.0500 O.2   300  ILE300     -0.2867
    212  CB        32.3190  -18.4540    0.0750 C.3   300  ILE300      0.0252
    213  CG1       32.4770  -17.5130   -1.1190 C.3   300  ILE300      0.0019
    214  CG2       32.6530  -17.7440    1.3750 C.3   300  ILE300      0.0019
    215  CD1       31.2960  -16.5750   -1.2890 C.3   300  ILE300      0.0001
    216  N         30.8910  -20.3800    3.4640 N.3   302  ILE302     -0.1245
    217  CA        30.0150  -19.7250    4.4390 C.3   302  ILE302      0.1561
    218  C         29.0510  -18.7730    3.7370 C.2   302  ILE302      0.2260
    219  O         29.4080  -18.1800    2.7170 O.2   302  ILE302     -0.2867
    220  CB        30.8360  -18.9380    5.4770 C.3   302  ILE302      0.0252
    221  CG1       30.0030  -18.6600    6.7270 C.3   302  ILE302      0.0019
    222  CG2       31.3650  -17.6460    4.8800 C.3   302  ILE302      0.0019
    223  CD1       30.7130  -17.7550    7.7190 C.3   302  ILE302      0.0001
    224  N         27.0330  -15.3510    3.2480 N.3   304  ILE304     -0.1245
    225  CA        27.3800  -13.9880    3.6500 C.3   304  ILE304      0.1561
    226  C         26.2580  -13.0120    3.3490 C.2   304  ILE304      0.2260
    227  O         25.8480  -12.8280    2.2020 O.2   304  ILE304     -0.2867
    228  CB        28.6750  -13.5140    2.9690 C.3   304  ILE304      0.0252
    229  CG1       29.8380  -14.4380    3.3330 C.3   304  ILE304      0.0019
    230  CG2       28.9860  -12.0750    3.3570 C.3   304  ILE304      0.0019
    231  CD1       31.1260  -14.0930    2.6080 C.3   304  ILE304      0.0001
@<TRIPOS>BOND
     1   197   198    1
     2   198   201    1
     3   198   199    1
     4   201   202    1
     5   203   202   ar
     6   203   205   ar
     7   189   188    2
     8   199   200    2
     9   188   187    1
    10   202   204   ar
    11   205   207   ar
    12    15    14    1
    13    16    14    1
    14   186   187    1
    15   187   190    1
    16   204   206   ar
    17   207   206   ar
    18    14    13    1
    19   190   191    1
    20    13    10    1
    21   191   193   ar
    22   191   192   ar
    23     9    10    1
    24    10    11    1
    25    24    22   ar
    26   193   195   ar
    27   192   194   ar
    28    23    22   ar
    29    22    21    1
    30    11    12    2
    31   195   196   ar
    32   194   196   ar
    33   172   171    1
    34    97    98    1
    35    80    81    1
    36    81    84    1
    37    81    82    1
    38     4     3    2
    39    21    18    1
    40    98    99    1
    41    98   101    1
    42   173   171    1
    43    83    82    2
    44    84    85    1
    45    82    86   am
    46   171   170    1
    47     3     2    1
    48    99   100    2
    49   103   102   ar
    50    17    18    1
    51    18    19    1
    52   102   101    1
    53   102   104   ar
    54     8     6    1
    55   185   184    1
    56    69    68    2
    57    86    87    1
    58     6     5    1
    59   170   167    1
    60    89    88    2
    61    88    87    1
    62   165   163    1
    63   183   184   ar
    64   183   181   ar
    65     2     5    1
    66     2     1    1
    67     5     7    1
    68   184   182   ar
    69    72    71   ar
    70    87    90    1
    71    19    20    2
    72    19    25   am
    73   163   164    1
    74   163   160    1
    75   181   179   ar
    76    68    67    1
    77   167   166    1
    78   167   168    1
    79    71    73   ar
    80    71    70    1
    81    25    26    1
    82   166   161   am
    83    67    70    1
    84    67    66    1
    85    79    78    1
    86   182   180   ar
    87    74    75    1
    88    90    91    1
    89   161   162    2
    90   161   160    1
    91   179   180   ar
    92   179   178    1
    93   160   159    1
    94   168   169    2
    95    65    64    2
    96   215   213    1
    97    75    78    1
    98    75    76    1
    99   208   209    1
   100   105   106    1
   101   213   212    1
   102    28    27    2
   103    26    29    1
   104    26    27    1
   105   175   178    1
   106   175   174    1
   107   175   176    1
   108    91    93   ar
   109    91    92   ar
   110    66    64   am
   111   112   110    1
   112   159   154   am
   113    93    95   ar
   114    64    63    1
   115   110   109    1
   116   176   177    2
   117    92    94   ar
   118   209   212    1
   119   209   210    1
   120    76    77    2
   121   212   214    1
   122   109   106    1
   123   109   111    1
   124   106   107    1
   125   108   107    2
   126    95    96   ar
   127   158   156    1
   128   154   155    2
   129   154   153    1
   130    94    96   ar
   131    53    52    2
   132    63    62    1
   133   210   211    2
   134   153   156    1
   135   153   152    1
   136    52    62   am
   137    52    51    1
   138   156   157    1
   139   151   150    2
   140   227   226    2
   141    37    35   ar
   142    54    51    1
   143    54    55    1
   144    50    51    1
   145   231   229    1
   146   152   150   am
   147   219   218    2
   148   150   149    1
   149   228   229    1
   150   228   230    1
   151   228   225    1
   152    57    55   ar
   153    57    59   ar
   154    55    56   ar
   155   224   225    1
   156    35    34    1
   157    35    36   ar
   158   226   225    1
   159   216   217    1
   160   218   217    1
   161    34    31    1
   162    59    60   ar
   163   119   118    1
   164   149   148    1
   165    56    58   ar
   166   217   220    1
   167   143   142    2
   168   222   220    1
   169    31    30    1
   170    31    32    1
   171   147   145   ar
   172    60    58   ar
   173    60    61    1
   174   118   120    1
   175   118   117    1
   176   220   221    1
   177   145   144    1
   178   145   146   ar
   179   142   141    1
   180   144   141    1
   181    32    33    2
   182   113   114    1
   183   117   114    1
   184    44    43   ar
   185    45    43   ar
   186   221   223    1
   187   141   140    1
   188   114   115    1
   189    43    42    1
   190   135   134    2
   191    42    39    1
   192   139   137    1
   193   137   136    1
   194    39    38    1
   195    39    40    1
   196   132   133    1
   197   134   133    1
   198   115   116    2
   199    49    48    2
   200    47    48    1
   201    47    46    1
   202   133   136    1
   203   136   138    1
   204    40    41    2
   205   131   129   ar
   206   131   130   ar
   207   129   127   ar
   208   130   128   ar
   209   127   126   ar
   210   128   126   ar
   211   126   125    1
   212   125   122    1
   213   122   123    1
   214   122   121    1
   215   123   124    2
