@<TRIPOS>MOLECULE
tmp/1e8cB01.pdb
 124 116 0 0 0
SMALL
GASTEIGER

@<TRIPOS>ATOM
      1  N         43.2240   44.3890   75.6060 N.3   153  THR153     -0.1218
      2  CA        42.5410   45.6490   75.8450 C.3   153  THR153      0.1862
      3  C         43.2840   46.3510   76.9910 C.2   153  THR153      0.2287
      4  O         43.5440   47.5490   76.9240 O.2   153  THR153     -0.2866
      5  CB        41.0740   45.3940   76.2170 C.3   153  THR153      0.1770
      6  OG1       40.3820   44.9020   75.0610 O.3   153  THR153     -0.2211
      7  CG2       40.3990   46.6720   76.7120 C.3   153  THR153      0.0375
      8  N         31.1710   38.2840   78.6880 N.3   205  HIS205     -0.1241
      9  CA        32.2250   37.7120   79.5140 C.3   205  HIS205      0.1621
     10  C         31.7950   36.7450   80.6170 C.2   205  HIS205      0.2264
     11  O         32.5460   36.5250   81.5650 O.2   205  HIS205     -0.2867
     12  CB        33.0430   38.8470   80.1320 C.3   205  HIS205      0.0745
     13  CG        33.6370   39.7760   79.1200 C.ar  205  HIS205      0.0817
     14  ND1       34.4340   39.3370   78.0850 N.ar  205  HIS205     -0.2268
     15  CD2       33.5630   41.1230   78.9940 C.ar  205  HIS205      0.1154
     16  CE1       34.8280   40.3730   77.3640 C.ar  205  HIS205      0.1986
     17  NE2       34.3140   41.4680   77.8950 N.ar  205  HIS205     -0.2212
     18  N         31.8860   47.0640   65.6730 N.3   347  TYR347     -0.1241
     19  CA        32.4660   46.0900   66.5890 C.3   347  TYR347      0.1605
     20  C         31.4280   45.2670   67.3680 C.2   347  TYR347      0.2264
     21  O         31.7280   44.1740   67.8460 O.2   347  TYR347     -0.2867
     22  CB        33.3870   46.8400   67.5530 C.3   347  TYR347      0.0534
     23  CG        34.3130   45.9830   68.3780 C.ar  347  TYR347     -0.0201
     24  CD1       35.0750   44.9720   67.7900 C.ar  347  TYR347     -0.0009
     25  CD2       34.4900   46.2370   69.7370 C.ar  347  TYR347     -0.0009
     26  CE1       35.9950   44.2370   68.5370 C.ar  347  TYR347      0.0417
     27  CE2       35.4130   45.5120   70.4930 C.ar  347  TYR347      0.0417
     28  CZ        36.1610   44.5160   69.8870 C.ar  347  TYR347      0.1957
     29  OH        37.0780   43.8050   70.6290 O.3   347  TYR347     -0.2866
     30  N         29.4720   43.0680   69.4100 N.3   349  HIS349     -0.1241
     31  CA        29.5650   41.6220   69.5740 C.3   349  HIS349      0.1621
     32  C         28.8410   41.1250   70.8310 C.2   349  HIS349      0.2264
     33  O         29.1190   40.0300   71.3230 O.2   349  HIS349     -0.2867
     34  CB        31.0290   41.1770   69.6140 C.3   349  HIS349      0.0745
     35  CG        31.8460   41.9000   70.6360 C.ar  349  HIS349      0.0817
     36  ND1       32.4340   43.1210   70.3890 N.ar  349  HIS349     -0.2268
     37  CD2       32.1370   41.5930   71.9210 C.ar  349  HIS349      0.1154
     38  CE1       33.0520   43.5360   71.4800 C.ar  349  HIS349      0.1986
     39  NE2       32.8870   42.6280   72.4240 N.ar  349  HIS349     -0.2212
     40  N         31.8840   34.6270   68.6450 N.3   376  GLY376     -0.1225
     41  CA        33.1890   34.0540   68.8970 C.3   376  GLY376      0.1811
     42  C         33.1280   32.6940   69.5620 C.2   376  GLY376      0.2280
     43  O         32.2880   32.4480   70.4300 O.2   376  GLY376     -0.2866
     44  N         33.6870   31.1320   74.0430 N.3   379  ARG379     -0.1245
     45  CA        33.2820   32.2650   74.8600 C.3   379  ARG379      0.1563
     46  C         31.8260   32.1820   75.2970 C.2   379  ARG379      0.2260
     47  O         31.1890   31.1420   75.1430 O.2   379  ARG379     -0.2867
     48  CB        33.5820   33.5680   74.1170 C.3   379  ARG379      0.0307
     49  CG        35.0600   33.9090   74.2330 C.3   379  ARG379      0.0489
     50  CD        35.4770   35.1520   73.5040 C.3   379  ARG379      0.2205
     51  NE        36.8550   35.5290   73.8310 N.pl3 379  ARG379     -0.0865
     52  CZ        37.8770   34.6810   73.9400 C.cat 379  ARG379      0.5346
     53  NH1       37.7050   33.3770   73.7600 N.pl3 379  ARG379      0.1354
     54  NH2       39.0880   35.1420   74.2150 N.pl3 379  ARG379      0.1354
     55  N         25.0290   34.0370   75.1700 N.3   383  LYS383     -0.1245
     56  CA        24.6420   35.2230   74.4140 C.3   383  LYS383      0.1561
     57  C         24.3200   34.9090   72.9590 C.2   383  LYS383      0.2260
     58  O         23.7710   35.7490   72.2500 O.2   383  LYS383     -0.2867
     59  CB        25.7310   36.3000   74.4830 C.3   383  LYS383      0.0271
     60  CG        26.9880   36.0040   73.6840 C.3   383  LYS383      0.0035
     61  CD        27.9760   37.1550   73.8200 C.3   383  LYS383      0.0206
     62  CE        29.2490   36.9040   73.0300 C.3   383  LYS383      0.1093
     63  NZ        30.1940   38.0500   73.1570 N.3   383  LYS383     -0.1314
     64  N         32.7950   34.1680   63.0750 N.3   402  ASP402     -0.1225
     65  CA        33.4070   35.3530   63.6780 C.3   402  ASP402      0.1805
     66  C         34.8140   34.8160   63.9310 C.2   402  ASP402      0.2597
     67  O         35.5680   34.5830   62.9840 O.2   402  ASP402     -0.2718
     68  CB        32.6870   35.6950   64.9930 C.3   402  ASP402      0.1424
     69  CG        33.2220   36.9570   65.6580 C.2   402  ASP402      0.3668
     70  OD1       34.3590   36.9350   66.1770 O.co2 402  ASP402     -0.2456
     71  OD2       32.4970   37.9740   65.6680 O.co2 402  ASP402     -0.2456
     72  N         35.1630   34.6060   65.1950 N.am  403  ASN403     -0.1974
     73  CA        36.4550   34.0220   65.5430 C.3   403  ASN403      0.1688
     74  C         36.1100   32.6760   66.1760 C.2   403  ASN403      0.2292
     75  O         35.9770   32.5700   67.3870 O.2   403  ASN403     -0.2864
     76  CB        37.2080   34.9080   66.5290 C.3   403  ASN403      0.1181
     77  CG        37.7700   36.1480   65.8720 C.2   403  ASN403      0.2629
     78  OD1       38.4490   36.0590   64.8480 O.2   403  ASN403     -0.2716
     79  ND2       37.4930   37.3140   66.4540 N.am  403  ASN403     -0.0877
     80  N         37.8220   30.0690   66.7370 N.3   405  ARG405     -0.1245
     81  CA        38.8410   29.5390   67.6260 C.3   405  ARG405      0.1563
     82  C         38.8340   28.0050   67.5700 C.2   405  ARG405      0.2260
     83  O         38.8940   27.4310   66.4780 O.2   405  ARG405     -0.2867
     84  CB        38.6500   30.0640   69.0520 C.3   405  ARG405      0.0307
     85  CG        38.8830   31.5720   69.1410 C.3   405  ARG405      0.0489
     86  CD        38.7800   32.1160   70.5600 C.3   405  ARG405      0.2205
     87  NE        39.1380   33.5340   70.6110 N.pl3 405  ARG405     -0.0865
     88  CZ        38.2960   34.5350   70.3640 C.cat 405  ARG405      0.5346
     89  NH1       37.0300   34.2900   70.0550 N.pl3 405  ARG405      0.1354
     90  NH2       38.7260   35.7880   70.4040 N.pl3 405  ARG405      0.1354
     91  N         30.6170   42.5470   64.7520 N.3   450  GLY450     -0.1210
     92  CA        31.4150   41.5680   65.4650 C.3   450  GLY450      0.1956
     93  C         32.9200   41.7200   65.4560 C.2   450  GLY450      0.2611
     94  O         33.5740   41.3710   66.4360 O.2   450  GLY450     -0.2717
     95  N         33.4850   42.2360   64.3720 N.am  451  LYS451     -0.1979
     96  CA        34.9330   42.3650   64.2990 C.3   451  LYS451      0.1596
     97  C         35.5070   43.7680   64.3780 C.2   451  LYS451      0.2287
     98  O         36.6480   43.9460   64.8010 O.2   451  LYS451     -0.2864
     99  CB        35.4410   41.6770   63.0380 C.3   451  LYS451      0.0298
    100  CG        35.6750   40.2030   63.2340 C.3   451  LYS451      0.0038
    101  CD        36.1810   39.5590   61.9680 C.3   451  LYS451      0.0206
    102  CE        36.4910   38.1110   62.2320 C.3   451  LYS451      0.1093
    103  NZ        37.5570   38.0460   63.2720 N.3   451  LYS451     -0.1314
    104  N         39.3960   44.6800   63.9400 N.3   454  GLU454     -0.1245
    105  CA        40.1930   43.4640   63.7690 C.3   454  GLU454      0.1567
    106  C         40.6550   43.1980   62.3340 C.2   454  GLU454      0.2260
    107  O         39.8760   43.2870   61.3950 O.2   454  GLU454     -0.2867
    108  CB        39.4130   42.2500   64.2830 C.3   454  GLU454      0.0388
    109  CG        39.3100   42.1630   65.8070 C.3   454  GLU454      0.1160
    110  CD        38.3450   41.0730   66.2650 C.2   454  GLU454      0.3649
    111  OE1       38.1380   40.0950   65.5090 O.co2 454  GLU454     -0.2457
    112  OE2       37.8030   41.1880   67.3850 O.co2 454  GLU454     -0.2457
    113  N         42.4370   40.3270   61.6750 N.3   456  TYR456     -0.1241
    114  CA        42.8150   38.9260   61.7600 C.3   456  TYR456      0.1605
    115  C         41.5640   38.1180   62.0910 C.2   456  TYR456      0.2264
    116  O         40.5440   38.6770   62.4940 O.2   456  TYR456     -0.2867
    117  CB        43.8580   38.7160   62.8620 C.3   456  TYR456      0.0534
    118  CG        43.4130   39.2210   64.2150 C.ar  456  TYR456     -0.0201
    119  CD1       43.4480   40.5850   64.5190 C.ar  456  TYR456     -0.0009
    120  CD2       42.9150   38.3440   65.1770 C.ar  456  TYR456     -0.0009
    121  CE1       42.9950   41.0640   65.7500 C.ar  456  TYR456      0.0417
    122  CE2       42.4570   38.8120   66.4110 C.ar  456  TYR456      0.0417
    123  CZ        42.5000   40.1730   66.6900 C.ar  456  TYR456      0.1957
    124  OH        42.0430   40.6400   67.9040 O.3   456  TYR456     -0.2866
@<TRIPOS>BOND
     1   107   106    2
     2   113   114    1
     3   114   115    1
     4   114   117    1
     5   101   102    1
     6   101   100    1
     7   115   116    2
     8   102   103    1
     9   106   105    1
    10   117   118    1
    11    67    66    2
    12    99   100    1
    13    99    96    1
    14    64    65    1
    15    65    66    1
    16    65    68    1
    17   105   104    1
    18   105   108    1
    19    66    72   am
    20   118   119   ar
    21   118   120   ar
    22   108   109    1
    23    96    95    1
    24    96    97    1
    25    95    93   am
    26    97    98    2
    27   119   121   ar
    28    91    92    1
    29    78    77    2
    30    68    69    1
    31   120   122   ar
    32    72    73    1
    33    93    92    1
    34    93    94    2
    35   111   110   ar
    36    73    74    1
    37    73    76    1
    38    69    71   ar
    39    69    70   ar
    40    18    19    1
    41   121   123   ar
    42   109   110    1
    43    77    79   am
    44    77    76    1
    45    74    75    2
    46   110   112   ar
    47   122   123   ar
    48    83    82    2
    49    19    20    1
    50    19    22    1
    51   123   124    1
    52    80    81    1
    53    20    21    2
    54    22    23    1
    55    82    81    1
    56    81    84    1
    57    24    23   ar
    58    24    26   ar
    59    23    25   ar
    60    26    28   ar
    61    40    41    1
    62    41    42    1
    63    84    85    1
    64    85    86    1
    65    30    31    1
    66    42    43    2
    67    31    34    1
    68    31    32    1
    69    34    35    1
    70    25    27   ar
    71    28    27   ar
    72    28    29    1
    73    89    88    1
    74    88    90    1
    75    88    87    2
    76    36    35   ar
    77    36    38   ar
    78    86    87    1
    79    35    37   ar
    80    32    33    2
    81    38    39   ar
    82    37    39   ar
    83    58    57    2
    84    57    56    1
    85    62    63    1
    86    62    61    1
    87    50    51    1
    88    50    49    1
    89    60    61    1
    90    60    59    1
    91    53    52    1
    92    51    52    2
    93    52    54    1
    94    44    45    1
    95    48    49    1
    96    48    45    1
    97    56    59    1
    98    56    55    1
    99    45    46    1
   100     6     5    1
   101    47    46    2
   102     1     2    1
   103     2     5    1
   104     2     3    1
   105     5     7    1
   106     4     3    2
   107    16    17   ar
   108    16    14   ar
   109    17    15   ar
   110    14    13   ar
   111     8     9    1
   112    15    13   ar
   113    13    12    1
   114     9    12    1
   115     9    10    1
   116    10    11    2
