@<TRIPOS>MOLECULE
tmp/1e8cB00.pdb
 242 233 0 0 0
SMALL
GASTEIGER

@<TRIPOS>ATOM
      1  N         57.6120   40.2520   81.9810 N.3    24  LEU24      -0.1231
      2  CA        56.9380   39.0380   82.4400 C.3    24  LEU24       0.1693
      3  C         57.1020   37.9260   81.3990 C.2    24  LEU24       0.2592
      4  O         56.6500   36.7990   81.6090 O.2    24  LEU24      -0.2718
      5  CB        55.4350   39.2900   82.6130 C.3    24  LEU24       0.0284
      6  CG        54.9210   39.9820   83.8740 C.3    24  LEU24       0.0019
      7  CD1       53.4520   40.3680   83.6960 C.3    24  LEU24       0.0001
      8  CD2       55.0970   39.0430   85.0550 C.3    24  LEU24       0.0001
      9  N         57.7420   38.2380   80.2760 N.am   25  ASP25      -0.1960
     10  CA        57.9020   37.2390   79.2180 C.3    25  ASP25       0.1840
     11  C         59.3630   36.9620   78.8880 C.2    25  ASP25       0.2623
     12  O         60.0890   37.8470   78.4400 O.2    25  ASP25      -0.2715
     13  CB        57.1680   37.7030   77.9610 C.3    25  ASP25       0.1450
     14  CG        56.8850   36.5650   76.9940 C.2    25  ASP25       0.3671
     15  OD1       57.8030   35.7560   76.7300 O.co2  25  ASP25      -0.2456
     16  OD2       55.7420   36.4830   76.4940 O.co2  25  ASP25      -0.2456
     17  N         59.7870   35.7220   79.1040 N.am   26  SER26      -0.1936
     18  CA        61.1660   35.3270   78.8390 C.3    26  SER26       0.2055
     19  C         61.5810   35.5710   77.3890 C.2    26  SER26       0.2642
     20  O         62.7330   35.9080   77.1130 O.2    26  SER26      -0.2714
     21  CB        61.3560   33.8470   79.1770 C.3    26  SER26       0.2130
     22  OG        60.5620   33.0260   78.3420 O.3    26  SER26      -0.2179
     23  N         60.6340   35.3990   76.4720 N.am   27  ARG27      -0.1977
     24  CA        60.8780   35.5730   75.0420 C.3    27  ARG27       0.1597
     25  C         61.4170   36.9460   74.6510 C.2    27  ARG27       0.2287
     26  O         62.0260   37.0990   73.5900 O.2    27  ARG27      -0.2864
     27  CB        59.5890   35.2590   74.2820 C.3    27  ARG27       0.0334
     28  CG        59.2060   33.7910   74.3990 C.3    27  ARG27       0.0492
     29  CD        57.8790   33.4800   73.7460 C.3    27  ARG27       0.2205
     30  NE        56.7770   34.0090   74.5430 N.pl3  27  ARG27      -0.0865
     31  CZ        55.5060   33.6470   74.4010 C.cat  27  ARG27       0.5346
     32  NH1       55.1670   32.7470   73.4880 N.pl3  27  ARG27       0.1354
     33  NH2       54.5730   34.1850   75.1770 N.pl3  27  ARG27       0.1354
     34  N         63.5760   39.5200   84.8150 N.3    35  PHE35      -0.1241
     35  CA        62.4880   38.6630   84.3680 C.3    35  PHE35       0.1605
     36  C         61.6040   38.3340   85.5760 C.2    35  PHE35       0.2264
     37  O         62.1050   37.9910   86.6460 O.2    35  PHE35      -0.2867
     38  CB        63.0530   37.3780   83.7370 C.3    35  PHE35       0.0534
     39  CG        62.0210   36.3120   83.4810 C.ar   35  PHE35      -0.0203
     40  CD1       60.8580   36.6020   82.7730 C.ar   35  PHE35      -0.0042
     41  CD2       62.2040   35.0170   83.9630 C.ar   35  PHE35      -0.0042
     42  CE1       59.8870   35.6140   82.5470 C.ar   35  PHE35      -0.0003
     43  CE2       61.2430   34.0200   83.7420 C.ar   35  PHE35      -0.0003
     44  CZ        60.0830   34.3210   83.0350 C.ar   35  PHE35      -0.0000
     45  N         55.7200   34.3610   87.0110 N.3    38  VAL38      -0.1231
     46  CA        54.5050   34.1010   87.7690 C.3    38  VAL38       0.1692
     47  C         53.7290   32.9090   87.2260 C.2    38  VAL38       0.2592
     48  O         53.9480   32.4650   86.1010 O.2    38  VAL38      -0.2718
     49  CB        53.5520   35.3190   87.7570 C.3    38  VAL38       0.0266
     50  CG1       54.2590   36.5450   88.3140 C.3    38  VAL38       0.0020
     51  CG2       53.0640   35.5810   86.3450 C.3    38  VAL38       0.0020
     52  N         52.8200   32.3930   88.0420 N.am   39  VAL39      -0.1966
     53  CA        51.9770   31.2760   87.6410 C.3    39  VAL39       0.1727
     54  C         50.7550   31.8890   86.9620 C.2    39  VAL39       0.2617
     55  O         50.0780   32.7380   87.5430 O.2    39  VAL39      -0.2715
     56  CB        51.5220   30.4470   88.8630 C.3    39  VAL39       0.0290
     57  CG1       50.5750   29.3430   88.4220 C.3    39  VAL39       0.0023
     58  CG2       52.7390   29.8580   89.5730 C.3    39  VAL39       0.0023
     59  N         50.4920   31.4810   85.7270 N.am   40  GLY40      -0.1940
     60  CA        49.3500   32.0200   85.0090 C.3    40  GLY40       0.2014
     61  C         48.2000   31.0340   84.9320 C.2    40  GLY40       0.2639
     62  O         48.1990   30.0140   85.6240 O.2    40  GLY40      -0.2714
     63  N         47.2150   31.3390   84.0950 N.am   41  HIS41      -0.1959
     64  CA        46.0600   30.4680   83.9290 C.3    41  HIS41       0.1787
     65  C         46.4190   29.2060   83.1520 C.2    41  HIS41       0.2620
     66  O         45.7910   28.1620   83.3380 O.2    41  HIS41      -0.2715
     67  CB        44.9340   31.1910   83.1770 C.3    41  HIS41       0.0785
     68  CG        44.3910   32.3900   83.8900 C.ar   41  HIS41       0.0821
     69  ND1       45.1260   33.5400   84.0830 N.ar   41  HIS41      -0.2267
     70  CD2       43.1780   32.6200   84.4490 C.ar   41  HIS41       0.1154
     71  CE1       44.3900   34.4270   84.7300 C.ar   41  HIS41       0.1986
     72  NE2       43.2040   33.8940   84.9640 N.ar   41  HIS41      -0.2212
     73  N         47.4210   29.3000   82.2820 N.am   42  GLN42      -0.1963
     74  CA        47.8100   28.1550   81.4610 C.3    42  GLN42       0.1733
     75  C         49.1950   27.5740   81.6980 C.2    42  GLN42       0.2616
     76  O         49.4070   26.3800   81.4840 O.2    42  GLN42      -0.2715
     77  CB        47.6850   28.5060   79.9760 C.3    42  GLN42       0.0408
     78  CG        46.2770   28.8910   79.5600 C.3    42  GLN42       0.0908
     79  CD        45.2640   27.7880   79.8200 C.2    42  GLN42       0.2608
     80  OE1       44.0590   28.0380   79.8520 O.2    42  GLN42      -0.2717
     81  NE2       45.7470   26.5610   79.9990 N.am   42  GLN42      -0.0878
     82  N         50.1430   28.4020   82.1210 N.am   43  ALA43      -0.1977
     83  CA        51.4970   27.9070   82.3440 C.3    43  ALA43       0.1597
     84  C         52.1430   28.4880   83.5950 C.2    43  ALA43       0.2287
     85  O         51.5690   29.3440   84.2690 O.2    43  ALA43      -0.2864
     86  CB        52.3610   28.2090   81.1220 C.3    43  ALA43       0.0319
     87  N         55.3790   30.4800   84.6720 N.3    45  GLY45      -0.1225
     88  CA        56.5280   31.2370   84.2150 C.3    45  GLY45       0.1811
     89  C         57.8670   30.7950   84.7820 C.2    45  GLY45       0.2280
     90  O         58.9030   30.9880   84.1430 O.2    45  GLY45      -0.2866
     91  N         60.3930   28.8140   82.7610 N.3    48  TYR48      -0.1241
     92  CA        61.1940   29.4780   81.7390 C.3    48  TYR48       0.1605
     93  C         62.3960   30.2160   82.3180 C.2    48  TYR48       0.2264
     94  O         63.0630   30.9690   81.6130 O.2    48  TYR48      -0.2867
     95  CB        60.3270   30.4600   80.9510 C.3    48  TYR48       0.0534
     96  CG        59.1860   29.7850   80.2320 C.ar   48  TYR48      -0.0201
     97  CD1       59.4170   29.0060   79.1010 C.ar   48  TYR48      -0.0009
     98  CD2       57.8850   29.8690   80.7200 C.ar   48  TYR48      -0.0009
     99  CE1       58.3830   28.3220   78.4750 C.ar   48  TYR48       0.0417
    100  CE2       56.8390   29.1850   80.1010 C.ar   48  TYR48       0.0417
    101  CZ        57.0980   28.4130   78.9800 C.ar   48  TYR48       0.1957
    102  OH        56.0760   27.7280   78.3670 O.3    48  TYR48      -0.2866
    103  N         65.7700   29.4780   80.5930 N.3    51  GLN51      -0.1245
    104  CA        65.8830   30.1650   79.3130 C.3    51  GLN51       0.1566
    105  C         66.2410   31.6310   79.5300 C.2    51  GLN51       0.2260
    106  O         67.0710   32.1910   78.8110 O.2    51  GLN51      -0.2867
    107  CB        64.5670   30.0600   78.5420 C.3    51  GLN51       0.0367
    108  CG        64.2360   28.6480   78.0960 C.3    51  GLN51       0.0905
    109  CD        62.8750   28.5510   77.4350 C.2    51  GLN51       0.2608
    110  OE1       62.5570   29.3210   76.5270 O.2    51  GLN51      -0.2717
    111  NE2       62.0640   27.5960   77.8840 N.am   51  GLN51      -0.0878
    112  N         34.1910   51.5340   75.7100 N.3   116  LYS116     -0.1245
    113  CA        35.4200   51.9880   76.3500 C.3   116  LYS116      0.1561
    114  C         36.3400   52.6220   75.3170 C.2   116  LYS116      0.2260
    115  O         36.9250   53.6620   75.5720 O.2   116  LYS116     -0.2867
    116  CB        36.2210   50.8550   76.9990 C.3   116  LYS116      0.0271
    117  CG        35.4900   49.7940   77.7500 C.3   116  LYS116      0.0035
    118  CD        36.5640   48.8330   78.2500 C.3   116  LYS116      0.0206
    119  CE        35.9870   47.6010   78.8500 C.3   116  LYS116      0.1093
    120  NZ        35.2870   46.8790   77.7560 N.3   116  LYS116     -0.1314
    121  N         47.5520   43.2730   71.5960 N.3   151  GLU151     -0.1231
    122  CA        46.8730   41.9830   71.6380 C.3   151  GLU151      0.1699
    123  C         45.7480   42.0240   72.6800 C.2   151  GLU151      0.2592
    124  O         44.7140   41.3760   72.5160 O.2   151  GLU151     -0.2718
    125  CB        47.8750   40.8820   72.0050 C.3   151  GLU151      0.0402
    126  CG        47.7990   39.6450   71.1250 C.3   151  GLU151      0.1161
    127  CD        48.3100   39.8990   69.7150 C.2   151  GLU151      0.3649
    128  OE1       47.7870   40.8160   69.0450 O.co2 151  GLU151     -0.2457
    129  OE2       49.2340   39.1780   69.2770 O.co2 151  GLU151     -0.2457
    130  N         45.9600   42.8020   73.7400 N.am  152  ASN152     -0.1960
    131  CA        44.9990   42.9350   74.8370 C.3   152  ASN152      0.1819
    132  C         44.3810   44.3300   74.9610 C.2   152  ASN152      0.2622
    133  O         44.9410   45.3250   74.5020 O.2   152  ASN152     -0.2715
    134  CB        45.6820   42.6100   76.1710 C.3   152  ASN152      0.1195
    135  CG        45.9010   41.1200   76.3850 C.2   152  ASN152      0.2630
    136  OD1       45.0120   40.4100   76.8600 O.2   152  ASN152     -0.2716
    137  ND2       47.0920   40.6420   76.0370 N.am  152  ASN152     -0.0877
    138  N         43.2240   44.3890   75.6060 N.am  153  THR153     -0.1937
    139  CA        42.5410   45.6490   75.8450 C.3   153  THR153      0.2028
    140  C         43.2840   46.3510   76.9910 C.2   153  THR153      0.2643
    141  O         43.5440   47.5490   76.9240 O.2   153  THR153     -0.2714
    142  CB        41.0740   45.3940   76.2170 C.3   153  THR153      0.1808
    143  OG1       40.3820   44.9020   75.0610 O.3   153  THR153     -0.2208
    144  CG2       40.3990   46.6720   76.7120 C.3   153  THR153      0.0379
    145  N         43.6260   45.5900   78.0340 N.am  154  THR154     -0.1936
    146  CA        44.3790   46.1130   79.1830 C.3   154  THR154      0.2028
    147  C         45.6360   45.2530   79.3290 C.2   154  THR154      0.2643
    148  O         45.5370   44.0590   79.6000 O.2   154  THR154     -0.2714
    149  CB        43.5770   46.0170   80.5100 C.3   154  THR154      0.1808
    150  OG1       42.4120   46.8490   80.4430 O.3   154  THR154     -0.2208
    151  CG2       44.4400   46.4700   81.6800 C.3   154  THR154      0.0379
    152  N         46.8090   45.8570   79.1540 N.am  155  GLY155     -0.1939
    153  CA        48.0580   45.1120   79.2560 C.3   155  GLY155      0.2014
    154  C         48.3880   44.5460   80.6310 C.2   155  GLY155      0.2639
    155  O         47.7090   44.8370   81.6150 O.2   155  GLY155     -0.2714
    156  N         49.4430   43.7340   80.7000 N.am  156  SER156     -0.1949
    157  CA        49.8730   43.1300   81.9620 C.3   156  SER156      0.1924
    158  C         50.2590   44.2180   82.9660 C.2   156  SER156      0.2314
    159  O         50.5050   45.3630   82.5820 O.2   156  SER156     -0.2863
    160  CB        51.0820   42.2190   81.7320 C.3   156  SER156      0.2116
    161  OG        52.2860   42.9790   81.7280 O.3   156  SER156     -0.2180
    162  N         39.5880   46.8410   81.5880 N.3   179  SER179     -0.1217
    163  CA        38.6630   45.7170   81.4730 C.3   179  SER179      0.1889
    164  C         38.3840   45.0320   82.8050 C.2   179  SER179      0.2288
    165  O         39.1750   45.1300   83.7530 O.2   179  SER179     -0.2866
    166  CB        39.2200   44.6770   80.4960 C.3   179  SER179      0.2089
    167  OG        40.4260   44.1310   81.0050 O.3   179  SER179     -0.2183
    168  N         38.4930   41.9520   83.2730 N.3   181  HIS181     -0.1241
    169  CA        39.5390   40.9340   83.4090 C.3   181  HIS181      0.1621
    170  C         40.7600   41.5630   84.0730 C.2   181  HIS181      0.2264
    171  O         41.3530   40.9870   84.9790 O.2   181  HIS181     -0.2867
    172  CB        39.9730   40.4010   82.0380 C.3   181  HIS181      0.0745
    173  CG        38.9120   39.6290   81.3200 C.ar  181  HIS181      0.0817
    174  ND1       37.6090   40.0650   81.2280 N.ar  181  HIS181     -0.2268
    175  CD2       38.9600   38.4480   80.6620 C.ar  181  HIS181      0.1154
    176  CE1       36.8990   39.1840   80.5470 C.ar  181  HIS181      0.1986
    177  NE2       37.6950   38.1930   80.1920 N.ar  181  HIS181     -0.2212
    178  N         42.4180   40.5910   87.7430 N.3   185  GLN185     -0.1245
    179  CA        43.8010   40.1010   87.6880 C.3   185  GLN185      0.1566
    180  C         44.8640   41.0960   88.1850 C.2   185  GLN185      0.2260
    181  O         46.0610   40.8630   88.0250 O.2   185  GLN185     -0.2867
    182  CB        44.1270   39.6560   86.2560 C.3   185  GLN185      0.0367
    183  CG        43.3250   38.4210   85.8110 C.3   185  GLN185      0.0905
    184  CD        43.5170   38.0640   84.3450 C.2   185  GLN185      0.2608
    185  OE1       44.6050   38.2210   83.7840 O.2   185  GLN185     -0.2717
    186  NE2       42.4580   37.5570   83.7210 N.am  185  GLN185     -0.0878
    187  N         45.8530   44.0030   87.0780 N.3   187  ARG187     -0.1245
    188  CA        46.6930   44.6520   86.0750 C.3   187  ARG187      0.1563
    189  C         46.8980   46.1520   86.2770 C.2   187  ARG187      0.2260
    190  O         47.8630   46.7100   85.7630 O.2   187  ARG187     -0.2867
    191  CB        46.1440   44.4020   84.6630 C.3   187  ARG187      0.0307
    192  CG        46.1330   42.9220   84.2590 C.3   187  ARG187      0.0489
    193  CD        45.5810   42.7490   82.8450 C.3   187  ARG187      0.2205
    194  NE        45.1720   41.3670   82.5990 N.pl3 187  ARG187     -0.0865
    195  CZ        44.4520   40.9750   81.5540 C.cat 187  ARG187      0.5346
    196  NH1       44.0620   41.8610   80.6440 N.pl3 187  ARG187      0.1354
    197  NH2       44.0950   39.7010   81.4370 N.pl3 187  ARG187      0.1354
    198  N         31.1710   38.2840   78.6880 N.3   205  HIS205     -0.1241
    199  CA        32.2250   37.7120   79.5140 C.3   205  HIS205      0.1621
    200  C         31.7950   36.7450   80.6170 C.2   205  HIS205      0.2264
    201  O         32.5460   36.5250   81.5650 O.2   205  HIS205     -0.2867
    202  CB        33.0430   38.8470   80.1320 C.3   205  HIS205      0.0745
    203  CG        33.6370   39.7760   79.1200 C.ar  205  HIS205      0.0817
    204  ND1       34.4340   39.3370   78.0850 N.ar  205  HIS205     -0.2268
    205  CD2       33.5630   41.1230   78.9940 C.ar  205  HIS205      0.1154
    206  CE1       34.8280   40.3730   77.3640 C.ar  205  HIS205      0.1986
    207  NE2       34.3140   41.4680   77.8950 N.ar  205  HIS205     -0.2212
    208  N         34.0000   33.8580   81.6240 N.3   208  TYR208     -0.1241
    209  CA        35.0830   34.1360   82.5510 C.3   208  TYR208      0.1605
    210  C         34.5480   34.4270   83.9480 C.2   208  TYR208      0.2264
    211  O         35.0170   33.8540   84.9300 O.2   208  TYR208     -0.2867
    212  CB        35.9030   35.3240   82.0450 C.3   208  TYR208      0.0534
    213  CG        37.0250   35.7280   82.9680 C.ar  208  TYR208     -0.0201
    214  CD1       38.1450   34.9150   83.1370 C.ar  208  TYR208     -0.0009
    215  CD2       36.9560   36.9140   83.6930 C.ar  208  TYR208     -0.0009
    216  CE1       39.1710   35.2750   84.0110 C.ar  208  TYR208      0.0417
    217  CE2       37.9700   37.2850   84.5660 C.ar  208  TYR208      0.0417
    218  CZ        39.0730   36.4630   84.7220 C.ar  208  TYR208      0.1957
    219  OH        40.0700   36.8320   85.5920 O.3   208  TYR208     -0.2866
    220  N         31.8860   47.0640   65.6730 N.3   347  TYR347     -0.1241
    221  CA        32.4660   46.0900   66.5890 C.3   347  TYR347      0.1605
    222  C         31.4280   45.2670   67.3680 C.2   347  TYR347      0.2264
    223  O         31.7280   44.1740   67.8460 O.2   347  TYR347     -0.2867
    224  CB        33.3870   46.8400   67.5530 C.3   347  TYR347      0.0534
    225  CG        34.3130   45.9830   68.3780 C.ar  347  TYR347     -0.0201
    226  CD1       35.0750   44.9720   67.7900 C.ar  347  TYR347     -0.0009
    227  CD2       34.4900   46.2370   69.7370 C.ar  347  TYR347     -0.0009
    228  CE1       35.9950   44.2370   68.5370 C.ar  347  TYR347      0.0417
    229  CE2       35.4130   45.5120   70.4930 C.ar  347  TYR347      0.0417
    230  CZ        36.1610   44.5160   69.8870 C.ar  347  TYR347      0.1957
    231  OH        37.0780   43.8050   70.6290 O.3   347  TYR347     -0.2866
    232  N         33.6870   31.1320   74.0430 N.3   379  ARG379     -0.1245
    233  CA        33.2820   32.2650   74.8600 C.3   379  ARG379      0.1563
    234  C         31.8260   32.1820   75.2970 C.2   379  ARG379      0.2260
    235  O         31.1890   31.1420   75.1430 O.2   379  ARG379     -0.2867
    236  CB        33.5820   33.5680   74.1170 C.3   379  ARG379      0.0307
    237  CG        35.0600   33.9090   74.2330 C.3   379  ARG379      0.0489
    238  CD        35.4770   35.1520   73.5040 C.3   379  ARG379      0.2205
    239  NE        36.8550   35.5290   73.8310 N.pl3 379  ARG379     -0.0865
    240  CZ        37.8770   34.6810   73.9400 C.cat 379  ARG379      0.5346
    241  NH1       37.7050   33.3770   73.7600 N.pl3 379  ARG379      0.1354
    242  NH2       39.0880   35.1420   74.2150 N.pl3 379  ARG379      0.1354
@<TRIPOS>BOND
     1   220   221    1
     2   221   222    1
     3   221   224    1
     4   222   223    2
     5   224   225    1
     6   226   225   ar
     7   226   228   ar
     8   225   227   ar
     9   228   230   ar
    10   128   127   ar
    11   129   127   ar
    12   127   126    1
    13   227   229   ar
    14   230   229   ar
    15   230   231    1
    16   126   125    1
    17   121   122    1
    18   122   125    1
    19   122   123    1
    20   124   123    2
    21   123   130   am
    22    32    31    1
    23   238   239    1
    24   238   237    1
    25    26    25    2
    26   130   131    1
    27    29    28    1
    28    29    30    1
    29   241   240    1
    30   239   240    2
    31   240   242    1
    32   232   233    1
    33   236   237    1
    34   236   233    1
    35    27    28    1
    36    27    24    1
    37    31    30    2
    38    31    33    1
    39   133   132    2
    40    25    24    1
    41   131   132    1
    42   131   134    1
    43   233   234    1
    44   132   138   am
    45    24    23    1
    46   143   142    1
    47   235   234    2
    48   114   115    2
    49   114   113    1
    50   138   139    1
    51   112   113    1
    52   139   142    1
    53   139   140    1
    54   137   135   am
    55   134   135    1
    56   142   144    1
    57   113   116    1
    58   135   136    2
    59    23    19   am
    60    16    14   ar
    61   110   109    2
    62    15    14   ar
    63   141   140    2
    64   140   145   am
    65    14    13    1
    66   116   117    1
    67    20    19    2
    68   206   207   ar
    69   206   204   ar
    70    19    18    1
    71   109   111   am
    72   109   108    1
    73   117   118    1
    74   120   119    1
    75   207   205   ar
    76    13    10    1
    77   145   146    1
    78   204   203   ar
    79   108   107    1
    80   118   119    1
    81    22    21    1
    82   102   101    1
    83    12    11    2
    84    99   101   ar
    85    99    97   ar
    86   107   104    1
    87   198   199    1
    88   106   105    2
    89    18    17    1
    90    18    21    1
    91    11    17   am
    92    11    10    1
    93   101   100   ar
    94   205   203   ar
    95    97    96   ar
    96   203   202    1
    97   152   153    1
    98   152   147   am
    99   146   147    1
   100   146   149    1
   101    10     9    1
   102   153   154    1
   103   104   105    1
   104   104   103    1
   105   147   148    2
   106   199   202    1
   107   199   200    1
   108    78    79    1
   109    78    77    1
   110    79    80    2
   111    79    81   am
   112    77    74    1
   113   100    98   ar
   114   177   176   ar
   115   177   175   ar
   116    96    98   ar
   117    96    95    1
   118     9     3   am
   119   150   149    1
   120   166   167    1
   121   166   163    1
   122   149   151    1
   123   176   174   ar
   124   200   201    2
   125   154   156   am
   126   154   155    2
   127   196   195    1
   128   175   173   ar
   129   156   157    1
   130    95    92    1
   131    86    83    1
   132   174   173   ar
   133   173   172    1
   134     3     4    2
   135     3     2    1
   136   197   195    1
   137    74    75    1
   138    74    73    1
   139   163   162    1
   140   163   164    1
   141    76    75    2
   142   195   194    2
   143    94    93    2
   144   208   209    1
   145    75    82   am
   146   161   160    1
   147   160   157    1
   148    92    93    1
   149    92    91    1
   150   157   158    1
   151     1     2    1
   152   172   169    1
   153   212   209    1
   154   212   213    1
   155    82    83    1
   156    73    65   am
   157    83    84    1
   158     2     5    1
   159    42    40   ar
   160    42    44   ar
   161   209   210    1
   162   159   158    2
   163   194   193    1
   164     5     6    1
   165    40    39   ar
   166   164   165    2
   167   193   192    1
   168   213   214   ar
   169   213   215   ar
   170    44    43   ar
   171   214   216   ar
   172    65    66    2
   173    65    64    1
   174    67    68    1
   175    67    64    1
   176   168   169    1
   177   169   170    1
   178    39    38    1
   179    39    41   ar
   180    84    85    2
   181   215   217   ar
   182     7     6    1
   183   186   184   am
   184    38    35    1
   185    43    41   ar
   186   185   184    2
   187     6     8    1
   188    68    69   ar
   189    68    70   ar
   190    64    63    1
   191   210   211    2
   192   216   218   ar
   193   170   171    2
   194    69    71   ar
   195    63    61   am
   196    90    89    2
   197    88    87    1
   198    88    89    1
   199   192   191    1
   200   184   183    1
   201    35    34    1
   202    35    36    1
   203    70    72   ar
   204   217   218   ar
   205   191   188    1
   206   218   219    1
   207    71    72   ar
   208    61    60    1
   209    61    62    2
   210    60    59    1
   211    36    37    2
   212    59    54   am
   213   190   189    2
   214   183   182    1
   215   188   189    1
   216   188   187    1
   217    48    47    2
   218   182   179    1
   219    51    49    1
   220    54    55    2
   221    54    53    1
   222    45    46    1
   223    47    46    1
   224    47    52   am
   225    53    52    1
   226    53    56    1
   227   179   178    1
   228   179   180    1
   229    49    46    1
   230    49    50    1
   231   181   180    2
   232    57    56    1
   233    56    58    1
