@<TRIPOS>MOLECULE
tmp/1e8eA00.pdb
 222 215 0 0 0
SMALL
GASTEIGER

@<TRIPOS>ATOM
      1  N         10.0270    0.6880   -3.4250 N.3    34  PHE34      -0.1241
      2  CA         8.9540   -0.0850   -4.0260 C.3    34  PHE34       0.1605
      3  C          7.7430    0.8000   -4.3270 C.2    34  PHE34       0.2264
      4  O          6.9120    0.4570   -5.1680 O.2    34  PHE34      -0.2867
      5  CB         8.5490   -1.1540   -3.0080 C.3    34  PHE34       0.0534
      6  CG         7.2300   -1.8570   -3.3360 C.ar   34  PHE34      -0.0203
      7  CD1        7.1190   -2.6000   -4.4690 C.ar   34  PHE34      -0.0042
      8  CD2        6.1690   -1.7380   -2.4930 C.ar   34  PHE34      -0.0042
      9  CE1        5.8950   -3.2530   -4.7730 C.ar   34  PHE34      -0.0003
     10  CE2        4.9450   -2.3910   -2.7970 C.ar   34  PHE34      -0.0003
     11  CZ         4.8340   -3.1350   -3.9300 C.ar   34  PHE34      -0.0000
     12  N          8.0840    1.9000  -12.3190 N.3    39  PHE39      -0.1241
     13  CA         7.9850    0.6010  -12.9640 C.3    39  PHE39       0.1605
     14  C          7.1370    0.6840  -14.2360 C.2    39  PHE39       0.2264
     15  O          6.4150    1.6580  -14.4430 O.2    39  PHE39      -0.2867
     16  CB         7.3030   -0.3410  -11.9710 C.3    39  PHE39       0.0534
     17  CG         5.9590    0.1720  -11.4490 C.ar   39  PHE39      -0.0203
     18  CD1        4.8440    0.0630  -12.2200 C.ar   39  PHE39      -0.0042
     19  CD2        5.8790    0.7360  -10.2150 C.ar   39  PHE39      -0.0042
     20  CE1        3.5960    0.5390  -11.7360 C.ar   39  PHE39      -0.0003
     21  CE2        4.6320    1.2120   -9.7310 C.ar   39  PHE39      -0.0003
     22  CZ         3.5170    1.1030  -10.5020 C.ar   39  PHE39      -0.0000
     23  N          3.0580    1.1350  -20.5940 N.3    45  LYS45      -0.1245
     24  CA         2.8830    2.4230  -19.9450 C.3    45  LYS45       0.1561
     25  C          3.5330    2.3840  -18.5600 C.2    45  LYS45       0.2260
     26  O          3.2140    1.5200  -17.7450 O.2    45  LYS45      -0.2867
     27  CB         1.4040    2.8130  -19.9200 C.3    45  LYS45       0.0271
     28  CG         1.1210    3.8180  -18.8010 C.3    45  LYS45       0.0035
     29  CD        -0.1680    4.5960  -19.0760 C.3    45  LYS45       0.0206
     30  CE        -1.1560    4.4460  -17.9180 C.3    45  LYS45       0.1093
     31  NZ        -1.1200    5.6430  -17.0480 N.3    45  LYS45      -0.1314
     32  N          4.5090    3.7740  -14.7630 N.3    47  ALA47      -0.1231
     33  CA         3.7480    4.3470  -13.6660 C.3    47  ALA47       0.1694
     34  C          4.5080    4.1300  -12.3560 C.2    47  ALA47       0.2592
     35  O          5.5610    3.4940  -12.3430 O.2    47  ALA47      -0.2718
     36  CB         2.3480    3.7300  -13.6370 C.3    47  ALA47       0.0304
     37  N          3.9450    4.6700  -11.2850 N.am   48  ALA48      -0.1966
     38  CA         4.5560    4.5430   -9.9730 C.3    48  ALA48       0.1728
     39  C          3.4780    4.6840   -8.8970 C.2    48  ALA48       0.2616
     40  O          2.4610    5.3410   -9.1140 O.2    48  ALA48      -0.2715
     41  CB         5.6680    5.5840   -9.8250 C.3    48  ALA48       0.0334
     42  N          3.7370    4.0560   -7.7600 N.am   49  CYS49      -0.1968
     43  CA         2.8010    4.1030   -6.6490 C.3    49  CYS49       0.1712
     44  C          2.7190    5.5470   -6.1510 C.2    49  CYS49       0.2296
     45  O          1.8290    5.8900   -5.3730 O.2    49  CYS49      -0.2864
     46  CB         3.2000    3.1350   -5.5320 C.3    49  CYS49       0.0983
     47  SG         3.4310    1.4010   -6.0660 S.3    49  CYS49      -0.0798
     48  N          2.6320    7.9330   -8.3810 N.3    51  SER51      -0.1202
     49  CA         2.0660    8.6180   -9.5310 C.3    51  SER51       0.2020
     50  C          0.6860    9.1780   -9.1780 C.2    51  SER51       0.2619
     51  O          0.2650   10.1940   -9.7290 O.2    51  SER51      -0.2717
     52  CB         1.9660    7.6820  -10.7360 C.3    51  SER51       0.2103
     53  OG         1.0210    6.6360  -10.5240 O.3    51  SER51      -0.2182
     54  N          0.0200    8.4900   -8.2620 N.am   52  CYS52      -0.1955
     55  CA        -1.3040    8.9060   -7.8300 C.3    52  CYS52       0.1843
     56  C         -1.2410    9.2290   -6.3360 C.2    52  CYS52       0.2625
     57  O         -1.7640   10.2480   -5.8890 O.2    52  CYS52      -0.2714
     58  CB        -2.3600    7.8430   -8.1400 C.3    52  CYS52       0.0997
     59  SG        -2.3930    7.5000   -9.9370 S.3    52  CYS52      -0.0797
     60  N         -0.5900    8.3350   -5.5920 N.am   53  HIS53      -0.1973
     61  CA        -0.4270    8.4720   -4.1490 C.3    53  HIS53       0.1656
     62  C          0.7940    9.3600   -3.8460 C.2    53  HIS53       0.2291
     63  O          1.2690    9.3910   -2.7120 O.2    53  HIS53      -0.2864
     64  CB        -0.3620    7.0730   -3.5200 C.3    53  HIS53       0.0771
     65  CG        -1.4920    6.1250   -3.8530 C.ar   53  HIS53       0.0820
     66  ND1       -2.7680    6.3970   -3.5630 N.ar   53  HIS53      -0.2267
     67  CD2       -1.4920    4.8940   -4.4640 C.ar   53  HIS53       0.1154
     68  CE1       -3.5330    5.3750   -3.9760 C.ar   53  HIS53       0.1986
     69  NE2       -2.7960    4.4200   -4.5400 N.ar   53  HIS53      -0.2212
     70  N         -5.7200   11.3710   -8.6840 N.3    63  ASN63      -0.1225
     71  CA        -5.9830   10.3850   -9.7190 C.3    63  ASN63       0.1785
     72  C         -5.7320   11.0130  -11.0910 C.2    63  ASN63       0.2597
     73  O         -6.2380   12.0950  -11.3850 O.2    63  ASN63      -0.2718
     74  CB        -7.4380    9.9140   -9.6740 C.3    63  ASN63       0.1169
     75  CG        -7.6680    8.9550   -8.5040 C.2    63  ASN63       0.2627
     76  OD1       -6.7440    8.5070   -7.8440 O.2    63  ASN63      -0.2716
     77  ND2       -8.9470    8.6660   -8.2840 N.am   63  ASN63      -0.0877
     78  N         -4.9500   10.3070  -11.8950 N.am   64  ILE64      -0.1966
     79  CA        -4.6260   10.7810  -13.2300 C.3    64  ILE64       0.1727
     80  C         -5.7270   10.3520  -14.2010 C.2    64  ILE64       0.2616
     81  O         -5.5820   10.4990  -15.4140 O.2    64  ILE64      -0.2715
     82  CB        -3.2280   10.3140  -13.6390 C.3    64  ILE64       0.0290
     83  CG1       -3.2520    8.8570  -14.1060 C.3    64  ILE64       0.0022
     84  CG2       -2.2210   10.5380  -12.5090 C.3    64  ILE64       0.0023
     85  CD1       -1.8570    8.3950  -14.5320 C.3    64  ILE64       0.0001
     86  N         -6.8030    9.8290  -13.6320 N.am   65  VAL65      -0.1977
     87  CA        -7.9290    9.3770  -14.4320 C.3    65  VAL65       0.1596
     88  C         -8.9280   10.5250  -14.5940 C.2    65  VAL65       0.2287
     89  O         -9.2780   10.8940  -15.7130 O.2    65  VAL65      -0.2864
     90  CB        -8.5500    8.1280  -13.8030 C.3    65  VAL65       0.0276
     91  CG1       -9.8730    7.7720  -14.4830 C.3    65  VAL65       0.0022
     92  CG2       -7.5760    6.9490  -13.8490 C.3    65  VAL65       0.0022
     93  N         -7.4530   12.8540   -4.2690 N.3    70  ILE70      -0.1231
     94  CA        -7.4060   11.6670   -3.4310 C.3    70  ILE70       0.1678
     95  C         -6.7190   12.0090   -2.1080 C.2    70  ILE70       0.2434
     96  O         -5.4960   12.0380   -1.9950 O.2    70  ILE70      -0.2733
     97  CB        -6.7500   10.5070   -4.1820 C.3    70  ILE70       0.0265
     98  CG1       -7.3290   10.3690   -5.5920 C.3    70  ILE70       0.0019
     99  CG2       -6.8640    9.2050   -3.3870 C.3    70  ILE70       0.0020
    100  CD1       -8.5090    9.3960   -5.6080 C.3    70  ILE70       0.0001
    101  N         -7.5470   12.2720   -1.0940 N.am   71  PRO71      -0.2729
    102  CA        -7.1150   12.6170    0.2440 C.3    71  PRO71       0.1401
    103  C         -6.0650   11.6200    0.7140 C.2    71  PRO71       0.2269
    104  O         -5.8690   10.5810    0.0870 O.2    71  PRO71      -0.2865
    105  CB        -8.3780   12.5250    1.0990 C.3    71  PRO71       0.0296
    106  CG        -9.4840   12.8460    0.1250 C.3    71  PRO71       0.0237
    107  CD        -8.9910   12.2480   -1.1910 C.3    71  PRO71       0.0939
    108  N         -3.8130    8.8290    1.8220 N.3    73  LEU73      -0.1245
    109  CA        -4.0790    7.4090    1.6650 C.3    73  LEU73       0.1561
    110  C         -3.7530    6.6860    2.9740 C.2    73  LEU73       0.2260
    111  O         -4.3760    5.6780    3.3020 O.2    73  LEU73      -0.2867
    112  CB        -3.3300    6.8530    0.4530 C.3    73  LEU73       0.0270
    113  CG        -3.1740    5.3320    0.4000 C.3    73  LEU73       0.0019
    114  CD1       -4.3870    4.6800   -0.2670 C.3    73  LEU73       0.0001
    115  CD2       -1.8630    4.9390   -0.2850 C.3    73  LEU73       0.0001
    116  N         -3.8160    4.8240    5.5800 N.3    75  PRO75      -0.2116
    117  CA        -4.9190    4.1260    6.2040 C.3    75  PRO75       0.1372
    118  C         -4.7940    4.2230    7.7180 C.2    75  PRO75       0.2244
    119  O         -5.7840    3.9970    8.4120 O.2    75  PRO75      -0.2868
    120  CB        -4.7830    2.6790    5.7350 C.3    75  PRO75       0.0268
    121  CG        -3.8830    2.7150    4.5260 C.3    75  PRO75       0.0207
    122  CD        -2.9890    3.9200    4.8110 C.3    75  PRO75       0.0892
    123  N        -10.1820    4.8290    7.6340 N.3    81  ARG81      -0.1231
    124  CA        -9.5400    3.9690    6.6540 C.3    81  ARG81       0.1694
    125  C         -9.2170    2.6070    7.2730 C.2    81  ARG81       0.2592
    126  O         -9.3700    2.4180    8.4790 O.2    81  ARG81      -0.2718
    127  CB        -8.2500    4.6010    6.1280 C.3    81  ARG81       0.0321
    128  CG        -8.5530    5.8140    5.2460 C.3    81  ARG81       0.0489
    129  CD        -8.7820    5.3920    3.7930 C.3    81  ARG81       0.2205
    130  NE        -8.6280    6.5590    2.8970 N.pl3  81  ARG81      -0.0865
    131  CZ        -9.6190    7.4090    2.5930 C.cat  81  ARG81       0.5346
    132  NH1      -10.8410    7.2260    3.1120 N.pl3  81  ARG81       0.1354
    133  NH2       -9.3880    8.4410    1.7710 N.pl3  81  ARG81       0.1354
    134  N         -8.7760    1.6950    6.4200 N.am   82  PHE82      -0.1976
    135  CA        -8.4300    0.3560    6.8690 C.3    82  PHE82       0.1639
    136  C         -9.3790   -0.1140    7.9730 C.2    82  PHE82       0.2290
    137  O         -8.9580   -0.3260    9.1090 O.2    82  PHE82      -0.2864
    138  CB        -7.0090    0.4260    7.4290 C.3    82  PHE82       0.0560
    139  CG        -5.9260   -0.0040    6.4370 C.ar   82  PHE82      -0.0200
    140  CD1       -6.1800    0.0220    5.1010 C.ar   82  PHE82      -0.0042
    141  CD2       -4.7110   -0.4110    6.8900 C.ar   82  PHE82      -0.0042
    142  CE1       -5.1760   -0.3770    4.1790 C.ar   82  PHE82      -0.0003
    143  CE2       -3.7060   -0.8100    5.9690 C.ar   82  PHE82      -0.0003
    144  CZ        -3.9600   -0.7850    4.6330 C.ar   82  PHE82      -0.0000
    145  N        -10.8940   -5.5400    2.0040 N.3    88  VAL88      -0.1245
    146  CA        -9.5070   -5.1250    1.8760 C.3    88  VAL88       0.1561
    147  C         -8.6600   -6.3220    1.4390 C.2    88  VAL88       0.2260
    148  O         -7.6510   -6.1560    0.7560 O.2    88  VAL88      -0.2867
    149  CB        -9.0250   -4.4980    3.1850 C.3    88  VAL88       0.0252
    150  CG1       -7.7460   -5.1760    3.6800 C.3    88  VAL88       0.0019
    151  CG2       -8.8210   -2.9900    3.0290 C.3    88  VAL88       0.0019
    152  N         -9.1450   -6.1400   -2.6070 N.3    91  GLU91      -0.1231
    153  CA        -8.9740   -4.8690   -3.2910 C.3    91  GLU91       0.1699
    154  C         -7.4870   -4.5610   -3.4750 C.2    91  GLU91       0.2592
    155  O         -7.1170   -3.7610   -4.3330 O.2    91  GLU91      -0.2718
    156  CB        -9.6780   -3.7400   -2.5350 C.3    91  GLU91       0.0402
    157  CG       -11.1880   -3.7720   -2.7830 C.3    91  GLU91       0.1161
    158  CD       -11.5780   -2.8090   -3.9060 C.2    91  GLU91       0.3649
    159  OE1      -11.5980   -1.5900   -3.6280 O.co2  91  GLU91      -0.2457
    160  OE2      -11.8490   -3.3130   -5.0170 O.co2  91  GLU91      -0.2457
    161  N         -6.6740   -5.2120   -2.6560 N.am   92  PHE92      -0.1976
    162  CA        -5.2360   -5.0180   -2.7180 C.3    92  PHE92       0.1639
    163  C         -4.6160   -5.8650   -3.8300 C.2    92  PHE92       0.2290
    164  O         -3.6100   -5.4780   -4.4240 O.2    92  PHE92      -0.2864
    165  CB        -4.6650   -5.4680   -1.3720 C.3    92  PHE92       0.0560
    166  CG        -3.8750   -4.3830   -0.6370 C.ar   92  PHE92      -0.0200
    167  CD1       -2.9420   -3.6520   -1.3040 C.ar   92  PHE92      -0.0042
    168  CD2       -4.1050   -4.1500    0.6830 C.ar   92  PHE92      -0.0042
    169  CE1       -2.2080   -2.6450   -0.6220 C.ar   92  PHE92      -0.0003
    170  CE2       -3.3710   -3.1440    1.3650 C.ar   92  PHE92      -0.0003
    171  CZ        -2.4380   -2.4120    0.6980 C.ar   92  PHE92      -0.0000
    172  N         -5.9930   -4.5300   -7.2730 N.3    95  HIS95      -0.1226
    173  CA        -5.2960   -3.2860   -7.5770 C.3    95  HIS95       0.1752
    174  C         -3.9920   -3.5920   -8.3380 C.2    95  HIS95       0.2596
    175  O         -3.7740   -3.1320   -9.4570 O.2    95  HIS95      -0.2718
    176  CB        -5.0970   -2.4960   -6.2750 C.3    95  HIS95       0.0759
    177  CG        -4.6710   -1.0530   -6.4130 C.ar   95  HIS95       0.0818
    178  ND1       -4.6230   -0.4270   -7.5930 N.ar   95  HIS95      -0.2268
    179  CD2       -4.2740   -0.1310   -5.4740 C.ar   95  HIS95       0.1154
    180  CE1       -4.2120    0.8360   -7.3970 C.ar   95  HIS95       0.1986
    181  NE2       -3.9830    1.0720   -6.1060 N.ar   95  HIS95      -0.2212
    182  N         -3.1300   -4.3840   -7.6970 N.am   96  CYS96      -0.1970
    183  CA        -1.8600   -4.7680   -8.2790 C.3    96  CYS96       0.1712
    184  C         -2.0960   -5.4270   -9.6300 C.2    96  CYS96       0.2296
    185  O         -1.1800   -5.4380  -10.4510 O.2    96  CYS96      -0.2864
    186  CB        -1.1320   -5.7170   -7.3310 C.3    96  CYS96       0.0983
    187  SG        -0.1790   -4.7370   -6.1450 S.3    96  CYS96      -0.0798
    188  N         -2.5270   -2.4650  -11.7470 N.3    99  ILE99      -0.1231
    189  CA        -1.4330   -1.5180  -11.6160 C.3    99  ILE99       0.1692
    190  C         -0.1560   -2.1390  -12.1870 C.2    99  ILE99       0.2591
    191  O          0.5160   -1.5320  -13.0190 O.2    99  ILE99      -0.2718
    192  CB        -1.2950   -1.0550  -10.1650 C.3    99  ILE99       0.0266
    193  CG1       -2.5960   -0.4210   -9.6670 C.3    99  ILE99       0.0019
    194  CG2       -0.1000   -0.1150  -10.0000 C.3    99  ILE99       0.0020
    195  CD1       -2.8120    0.9560  -10.2980 C.3    99  ILE99       0.0001
    196  N          0.1400   -3.3420  -11.7170 N.am  100  LEU100     -0.1980
    197  CA         1.3240   -4.0520  -12.1700 C.3   100  LEU100      0.1596
    198  C          0.9300   -5.0450  -13.2660 C.2   100  LEU100      0.2287
    199  O          1.7340   -5.3570  -14.1430 O.2   100  LEU100     -0.2864
    200  CB         2.0470   -4.6980  -10.9860 C.3   100  LEU100      0.0297
    201  CG         2.7390   -3.7370  -10.0170 C.3   100  LEU100      0.0022
    202  CD1        3.3710   -4.4970   -8.8500 C.3   100  LEU100      0.0001
    203  CD2        3.7560   -2.8590  -10.7490 C.3   100  LEU100      0.0001
    204  N          4.3850   -2.6450    2.6460 N.3   112  PHE112     -0.1241
    205  CA         3.6510   -1.4040    2.4690 C.3   112  PHE112      0.1605
    206  C          2.7800   -1.1020    3.6900 C.2   112  PHE112      0.2264
    207  O          2.7590    0.0270    4.1780 O.2   112  PHE112     -0.2867
    208  CB         2.7490   -1.5890    1.2470 C.3   112  PHE112      0.0534
    209  CG         2.0290   -0.3120    0.8060 C.ar  112  PHE112     -0.0203
    210  CD1        2.7480    0.7650    0.3900 C.ar  112  PHE112     -0.0042
    211  CD2        0.6710   -0.2550    0.8310 C.ar  112  PHE112     -0.0042
    212  CE1        2.0800    1.9490   -0.0190 C.ar  112  PHE112     -0.0003
    213  CE2        0.0030    0.9290    0.4220 C.ar  112  PHE112     -0.0003
    214  CZ         0.7210    2.0060    0.0050 C.ar  112  PHE112     -0.0000
    215  N          3.0470    2.0900    5.8330 N.3   116  LEU116     -0.1245
    216  CA         1.7920    2.8200    5.8810 C.3   116  LEU116      0.1561
    217  C          1.3680    3.0000    7.3400 C.2   116  LEU116      0.2260
    218  O          0.8220    4.0390    7.7080 O.2   116  LEU116     -0.2867
    219  CB         0.7370    2.1290    5.0150 C.3   116  LEU116      0.0270
    220  CG         0.5720    2.6760    3.5960 C.3   116  LEU116      0.0019
    221  CD1       -0.6330    2.0400    2.9000 C.3   116  LEU116      0.0001
    222  CD2        0.4890    4.2040    3.6020 C.3   116  LEU116      0.0001
@<TRIPOS>BOND
     1    23    24    1
     2    24    27    1
     3    24    25    1
     4    27    28    1
     5    29    28    1
     6    29    30    1
     7    25    26    2
     8    30    31    1
     9    89    88    2
    10    81    80    2
    11    32    33    1
    12    88    87    1
    13    85    83    1
    14    91    90    1
    15    15    14    2
    16    87    90    1
    17    87    86    1
    18    14    13    1
    19    80    86   am
    20    80    79    1
    21   199   198    2
    22    83    82    1
    23    92    90    1
    24    33    36    1
    25    33    34    1
    26    82    79    1
    27    82    84    1
    28   198   197    1
    29    79    78    1
    30   191   190    2
    31    13    12    1
    32    13    16    1
    33    34    35    2
    34    34    37   am
    35    18    20   ar
    36    18    17   ar
    37   190   196   am
    38   190   189    1
    39   197   196    1
    40   197   200    1
    41    16    17    1
    42    78    72   am
    43   188   189    1
    44    20    22   ar
    45   189   192    1
    46    17    19   ar
    47    73    72    2
    48    37    38    1
    49    72    71    1
    50   200   201    1
    51   203   201    1
    52    52    53    1
    53    52    49    1
    54    22    21   ar
    55   185   184    2
    56   195   193    1
    57    19    21   ar
    58   192   194    1
    59   192   193    1
    60   201   202    1
    61    38    41    1
    62    38    39    1
    63    59    58    1
    64    51    50    2
    65    71    74    1
    66    71    70    1
    67    74    75    1
    68   184   183    1
    69    49    50    1
    70    49    48    1
    71   175   174    2
    72    50    54   am
    73    40    39    2
    74    39    42   am
    75    75    77   am
    76    75    76    2
    77   174   182   am
    78   174   173    1
    79   183   182    1
    80   183   186    1
    81    54    55    1
    82    58    55    1
    83    55    56    1
    84    42    43    1
    85   178   180   ar
    86   178   177   ar
    87   173   172    1
    88   173   176    1
    89   180   181   ar
    90   186   187    1
    91    43    44    1
    92    43    46    1
    93   177   176    1
    94   177   179   ar
    95    56    57    2
    96    56    60   am
    97    44    45    2
    98   181   179   ar
    99    47    46    1
   100   100    98    1
   101    98    97    1
   102    60    61    1
   103     4     3    2
   104   160   158   ar
   105     9     7   ar
   106     9    11   ar
   107    69    67   ar
   108    69    68   ar
   109     7     6   ar
   110    67    65   ar
   111   164   163    2
   112   155   154    2
   113     3     2    1
   114    93    94    1
   115    97    94    1
   116    97    99    1
   117    61    62    1
   118    61    64    1
   119     2     1    1
   120     2     5    1
   121    68    66   ar
   122    11    10   ar
   123   158   159   ar
   124   158   157    1
   125    65    66   ar
   126    65    64    1
   127    62    63    2
   128   163   162    1
   129   154   153    1
   130   154   161   am
   131    94    95    1
   132     6     5    1
   133     6     8   ar
   134   153   152    1
   135   153   156    1
   136    10     8   ar
   137   157   156    1
   138   162   161    1
   139   162   165    1
   140    95    96    2
   141    95   101   am
   142   165   166    1
   143   167   166   ar
   144   167   169   ar
   145   107   101    1
   146   107   106    1
   147   101   102    1
   148   166   168   ar
   149   169   171   ar
   150   115   113    1
   151   114   113    1
   152   212   214   ar
   153   212   210   ar
   154   214   213   ar
   155   104   103    2
   156   106   105    1
   157   102   103    1
   158   102   105    1
   159   210   209   ar
   160   113   112    1
   161   213   211   ar
   162   112   109    1
   163   168   170   ar
   164   171   170   ar
   165   148   147    2
   166   209   211   ar
   167   209   208    1
   168   208   205    1
   169   147   146    1
   170   109   108    1
   171   109   110    1
   172   133   131    1
   173   146   145    1
   174   146   149    1
   175   205   204    1
   176   205   206    1
   177   131   130    2
   178   131   132    1
   179   130   129    1
   180   221   220    1
   181   110   111    2
   182   151   149    1
   183   149   150    1
   184   220   222    1
   185   220   219    1
   186   206   207    2
   187   129   128    1
   188   142   144   ar
   189   142   140   ar
   190   121   122    1
   191   121   120    1
   192   144   143   ar
   193   122   116    1
   194   219   216    1
   195   140   139   ar
   196   128   127    1
   197   116   117    1
   198   120   117    1
   199   215   216    1
   200   216   217    1
   201   143   141   ar
   202   127   124    1
   203   117   118    1
   204   134   135    1
   205   134   125   am
   206   139   141   ar
   207   139   138    1
   208   124   125    1
   209   124   123    1
   210   135   138    1
   211   135   136    1
   212   125   126    2
   213   217   218    2
   214   118   119    2
   215   136   137    2
