@<TRIPOS>MOLECULE
tmp/1e8gB01.pdb
 151 143 0 0 0
SMALL
GASTEIGER

@<TRIPOS>ATOM
      1  N         85.1160   29.4720   37.7220 N.3    98  TYR98      -0.1241
      2  CA        84.5620   30.4280   38.6590 C.3    98  TYR98       0.1605
      3  C         83.7090   31.4880   37.9620 C.2    98  TYR98       0.2264
      4  O         83.2210   32.4460   38.5740 O.2    98  TYR98      -0.2867
      5  CB        85.6770   31.1100   39.4880 C.3    98  TYR98       0.0534
      6  CG        86.3980   30.2130   40.4700 C.ar   98  TYR98      -0.0201
      7  CD1       85.6860   29.4090   41.3600 C.ar   98  TYR98      -0.0009
      8  CD2       87.7930   30.1110   40.4900 C.ar   98  TYR98      -0.0009
      9  CE1       86.2920   28.5800   42.2760 C.ar   98  TYR98       0.0417
     10  CE2       88.4240   29.2830   41.4030 C.ar   98  TYR98       0.0417
     11  CZ        87.6740   28.5170   42.2750 C.ar   98  TYR98       0.1957
     12  OH        88.3220   27.7000   43.1770 O.3    98  TYR98      -0.2866
     13  N         98.6210   26.6880   38.3360 N.3   160  ASP160     -0.1239
     14  CA        98.6730   25.6230   37.3600 C.3   160  ASP160      0.1674
     15  C         98.7530   26.0940   35.9280 C.2   160  ASP160      0.2266
     16  O         99.4440   25.3990   35.1710 O.2   160  ASP160     -0.2867
     17  CB        97.5070   24.6320   37.5360 C.3   160  ASP160      0.1410
     18  CG        97.9950   23.5350   38.4750 C.2   160  ASP160      0.3668
     19  OD1       99.1860   23.5780   38.8750 O.co2 160  ASP160     -0.2456
     20  OD2       97.2120   22.6230   38.7870 O.co2 160  ASP160     -0.2456
     21  N         96.2320   30.4970   44.6910 N.3   175  VAL175     -0.1245
     22  CA        97.2980   29.6440   45.1820 C.3   175  VAL175      0.1561
     23  C         98.2480   29.2280   44.0610 C.2   175  VAL175      0.2260
     24  O         97.9360   28.8280   42.9250 O.2   175  VAL175     -0.2867
     25  CB        96.6150   28.3550   45.7200 C.3   175  VAL175      0.0252
     26  CG1       97.6380   27.3250   46.1790 C.3   175  VAL175      0.0019
     27  CG2       95.6540   28.6710   46.8650 C.3   175  VAL175      0.0019
     28  N        102.5170   27.1820   43.9900 N.3   177  TYR177     -0.1241
     29  CA       103.1290   25.9860   44.5830 C.3   177  TYR177      0.1605
     30  C        104.5720   26.0480   45.0310 C.2   177  TYR177      0.2264
     31  O        105.1210   24.9750   45.3150 O.2   177  TYR177     -0.2867
     32  CB       102.8530   24.8280   43.5670 C.3   177  TYR177      0.0534
     33  CG       101.3930   24.8250   43.1950 C.ar  177  TYR177     -0.0201
     34  CD1      100.5120   24.2730   44.1240 C.ar  177  TYR177     -0.0009
     35  CD2      100.8850   25.4410   42.0340 C.ar  177  TYR177     -0.0009
     36  CE1       99.1490   24.2950   43.8790 C.ar  177  TYR177      0.0417
     37  CE2       99.5220   25.4240   41.8160 C.ar  177  TYR177      0.0417
     38  CZ        98.6690   24.8830   42.7440 C.ar  177  TYR177      0.1957
     39  OH        97.3120   24.9250   42.5030 O.3   177  TYR177     -0.2866
     40  N        101.0380   19.1340   46.6990 N.3   300  THR300     -0.1218
     41  CA        99.6890   18.7430   46.3590 C.3   300  THR300      0.1862
     42  C         99.5360   17.2240   46.3860 C.2   300  THR300      0.2287
     43  O        100.4540   16.4440   46.1440 O.2   300  THR300     -0.2866
     44  CB        99.2610   19.2240   44.9600 C.3   300  THR300      0.1770
     45  OG1      100.3030   18.8330   44.0300 O.3   300  THR300     -0.2211
     46  CG2       99.1200   20.7460   44.8760 C.3   300  THR300      0.0375
     47  N         97.3120   14.6870   44.5370 N.3   302  ARG302     -0.1245
     48  CA        96.4020   14.5860   43.4000 C.3   302  ARG302      0.1563
     49  C         95.7610   13.2160   43.2740 C.2   302  ARG302      0.2260
     50  O         96.3930   12.1740   43.4680 O.2   302  ARG302     -0.2867
     51  CB        97.1800   14.9010   42.1090 C.3   302  ARG302      0.0307
     52  CG        97.6020   16.3730   42.0460 C.3   302  ARG302      0.0489
     53  CD        98.6350   16.6710   41.0020 C.3   302  ARG302      0.2205
     54  NE        98.2820   16.4590   39.6090 N.pl3 302  ARG302     -0.0865
     55  CZ        97.7730   17.3850   38.7970 C.cat 302  ARG302      0.5346
     56  NH1       97.5460   18.6320   39.2200 N.pl3 302  ARG302      0.1354
     57  NH2       97.5400   17.0110   37.5420 N.pl3 302  ARG302      0.1354
     58  N         92.8260   13.0340   38.0190 N.3   306  LEU306     -0.1245
     59  CA        93.3160   14.3650   37.6260 C.3   306  LEU306      0.1561
     60  C         94.5520   14.1640   36.7560 C.2   306  LEU306      0.2260
     61  O         94.6590   14.6990   35.6440 O.2   306  LEU306     -0.2867
     62  CB        93.5380   15.1950   38.8830 C.3   306  LEU306      0.0270
     63  CG        93.9950   16.6400   38.6900 C.3   306  LEU306      0.0019
     64  CD1       92.9680   17.3730   37.8370 C.3   306  LEU306      0.0001
     65  CD2       94.2120   17.2970   40.0410 C.3   306  LEU306      0.0001
     66  N         92.8150   18.4180   31.4390 N.3   403  TRP403     -0.1241
     67  CA        91.8130   17.6610   32.2030 C.3   403  TRP403      0.1605
     68  C         90.4000   18.2050   31.9750 C.2   403  TRP403      0.2264
     69  O         89.4150   17.4770   32.1340 O.2   403  TRP403     -0.2867
     70  CB        92.0800   17.5750   33.6920 C.3   403  TRP403      0.0550
     71  CG        92.1210   18.7980   34.5410 C.ar  403  TRP403      0.0003
     72  CD1       93.2550   19.3480   35.0740 C.ar  403  TRP403      0.0946
     73  CD2       91.0400   19.6140   34.9990 C.ar  403  TRP403      0.0152
     74  NE1       92.9450   20.4590   35.8220 N.ar  403  TRP403     -0.2442
     75  CE2       91.5840   20.6350   35.7980 C.ar  403  TRP403      0.0810
     76  CE3       89.6560   19.5750   34.8220 C.ar  403  TRP403      0.0012
     77  CZ2       90.8080   21.6240   36.4050 C.ar  403  TRP403      0.0191
     78  CZ3       88.8690   20.5530   35.4210 C.ar  403  TRP403      0.0001
     79  CH2       89.4620   21.5600   36.1970 C.ar  403  TRP403      0.0015
     80  N         84.4720   24.5920   39.8080 N.3   414  PHE414     -0.1241
     81  CA        85.2290   24.1600   40.9820 C.3   414  PHE414      0.1605
     82  C         84.4580   24.2580   42.2880 C.2   414  PHE414      0.2264
     83  O         83.9430   25.3220   42.6390 O.2   414  PHE414     -0.2867
     84  CB        86.4750   25.0310   41.1430 C.3   414  PHE414      0.0534
     85  CG        87.5690   24.9240   40.1270 C.ar  414  PHE414     -0.0203
     86  CD1       88.2170   23.7150   39.8870 C.ar  414  PHE414     -0.0042
     87  CD2       88.0040   26.0500   39.4490 C.ar  414  PHE414     -0.0042
     88  CE1       89.2540   23.6370   38.9760 C.ar  414  PHE414     -0.0003
     89  CE2       89.0310   25.9830   38.5190 C.ar  414  PHE414     -0.0003
     90  CZ        89.6580   24.7710   38.2930 C.ar  414  PHE414     -0.0000
     91  N         92.1550   17.5290   43.7960 N.3   447  THR447     -0.1218
     92  CA        93.4260   17.7390   44.4060 C.3   447  THR447      0.1862
     93  C         93.2680   18.4180   45.7980 C.2   447  THR447      0.2287
     94  O         92.4610   19.3200   45.9710 O.2   447  THR447     -0.2866
     95  CB        94.3450   18.8520   43.8320 C.3   447  THR447      0.1770
     96  OG1       93.8950   19.4350   42.6070 O.3   447  THR447     -0.2211
     97  CG2       95.7720   18.4040   43.7550 C.3   447  THR447      0.0375
     98  N         95.6160   20.9890   48.0050 N.3   449  THR449     -0.1218
     99  CA        96.8120   21.8240   47.9840 C.3   449  THR449      0.1862
    100  C         97.1170   22.0770   49.4640 C.2   449  THR449      0.2287
    101  O         96.2310   22.4730   50.2280 O.2   449  THR449     -0.2866
    102  CB        96.7220   23.0800   47.1360 C.3   449  THR449      0.1770
    103  OG1       95.8960   24.0700   47.7650 O.3   449  THR449     -0.2211
    104  CG2       96.1880   22.7750   45.7420 C.3   449  THR449      0.0375
    105  N         93.4880   23.2580   50.8040 N.3   456  HIS456     -0.1241
    106  CA        92.4150   23.6860   49.9050 C.3   456  HIS456      0.1621
    107  C         92.0460   22.4140   49.1140 C.2   456  HIS456      0.2264
    108  O         92.9640   21.7850   48.5730 O.2   456  HIS456     -0.2867
    109  CB        92.8110   24.7320   48.8810 C.3   456  HIS456      0.0745
    110  CG        93.0370   26.1280   49.3650 C.ar  456  HIS456      0.0817
    111  ND1       93.6150   26.4240   50.5710 N.ar  456  HIS456     -0.2268
    112  CD2       92.7930   27.3100   48.7690 C.ar  456  HIS456      0.1154
    113  CE1       93.7020   27.7440   50.7130 C.ar  456  HIS456      0.1986
    114  NE2       93.1900   28.3080   49.6180 N.ar  456  HIS456     -0.2212
    115  N         90.3150   21.1140   46.0220 N.3   458  ILE458     -0.1245
    116  CA        89.7300   21.5400   44.7610 C.3   458  ILE458      0.1561
    117  C         89.0470   20.4000   44.0210 C.2   458  ILE458      0.2260
    118  O         89.6690   19.5390   43.4130 O.2   458  ILE458     -0.2867
    119  CB        90.8010   22.2220   43.8860 C.3   458  ILE458      0.0252
    120  CG1       91.5950   23.2530   44.6960 C.3   458  ILE458      0.0019
    121  CG2       90.1300   22.8410   42.6670 C.3   458  ILE458      0.0019
    122  CD1       90.7760   24.4490   45.1890 C.3   458  ILE458      0.0001
    123  N         87.0840   19.1330   41.0510 N.3   460  CYS460     -0.1235
    124  CA        86.8720   19.5810   39.6740 C.3   460  CYS460      0.1677
    125  C         85.6650   18.8750   39.0940 C.2   460  CYS460      0.2270
    126  O         85.7660   17.7160   38.7490 O.2   460  CYS460     -0.2867
    127  CB        88.1330   19.2840   38.8370 C.3   460  CYS460      0.0956
    128  SG        89.6310   19.6990   39.7530 S.3   460  CYS460     -0.0801
    129  N         86.4190   28.5590   50.0500 N.3   493  TYR493     -0.1227
    130  CA        87.2780   29.7360   50.0590 C.3   493  TYR493      0.1736
    131  C         87.0290   30.6100   48.8350 C.2   493  TYR493      0.2592
    132  O         87.4150   31.7780   48.8360 O.2   493  TYR493     -0.2718
    133  CB        88.7850   29.3730   50.1750 C.3   493  TYR493      0.0548
    134  CG        89.5640   29.3910   48.8820 C.ar  493  TYR493     -0.0200
    135  CD1       89.3980   28.3850   47.9510 C.ar  493  TYR493     -0.0009
    136  CD2       90.4540   30.4210   48.5460 C.ar  493  TYR493     -0.0009
    137  CE1       90.0610   28.3480   46.7300 C.ar  493  TYR493      0.0417
    138  CE2       91.1260   30.4260   47.3340 C.ar  493  TYR493      0.0417
    139  CZ        90.9310   29.3790   46.4480 C.ar  493  TYR493      0.1957
    140  OH        91.5950   29.3810   45.2350 O.3   493  TYR493     -0.2866
    141  N         86.4130   30.0230   47.8040 N.am  494  ARG494     -0.2033
    142  CA        86.2280   30.7550   46.5470 C.3   494  ARG494      0.1283
    143  C         85.1520   30.1300   45.6810 C.3   494  ARG494      0.2036
    144  O         85.1120   28.8860   45.7610 O.3   494  ARG494     -0.2185
    145  CB        87.5890   30.6530   45.8270 C.3   494  ARG494      0.0281
    146  CG        87.7520   31.4950   44.5700 C.3   494  ARG494      0.0488
    147  CD        89.2520   31.5500   44.2430 C.3   494  ARG494      0.2205
    148  NE        89.5030   32.1100   42.9290 N.pl3 494  ARG494     -0.0865
    149  CZ        90.5870   32.0090   42.1930 C.cat 494  ARG494      0.5346
    150  NH1       91.6410   31.3100   42.6490 N.pl3 494  ARG494      0.1354
    151  NH2       90.5720   32.6230   40.9980 N.pl3 494  ARG494      0.1354
@<TRIPOS>BOND
     1    66    67    1
     2    68    69    2
     3    68    67    1
     4    67    70    1
     5    70    71    1
     6    71    73   ar
     7    71    72   ar
     8    76    73   ar
     9    76    78   ar
    10    73    75   ar
    11    72    74   ar
    12    16    15    2
    13    78    79   ar
    14    61    60    2
    15    75    74   ar
    16    75    77   ar
    17    15    14    1
    18    79    77   ar
    19    60    59    1
    20    14    17    1
    21    14    13    1
    22    17    18    1
    23    57    55    1
    24    59    58    1
    25    59    62    1
    26     1     2    1
    27    64    63    1
    28     3     4    2
    29     3     2    1
    30    90    89   ar
    31    90    88   ar
    32    18    20   ar
    33    18    19   ar
    34    89    87   ar
    35     2     5    1
    36    63    62    1
    37    63    65    1
    38   126   125    2
    39    55    56    1
    40    55    54    2
    41   127   124    1
    42   127   128    1
    43    88    86   ar
    44   125   124    1
    45    87    85   ar
    46     5     6    1
    47    54    53    1
    48   124   123    1
    49    80    81    1
    50    86    85   ar
    51    85    84    1
    52     6     8   ar
    53     6     7   ar
    54     8    10   ar
    55    81    84    1
    56    81    82    1
    57   151   149    1
    58    53    52    1
    59     7     9   ar
    60    10    11   ar
    61    37    35   ar
    62    37    38   ar
    63    35    33   ar
    64    52    51    1
    65    51    48    1
    66   149   150    1
    67   149   148    2
    68    11     9   ar
    69    11    12    1
    70    82    83    2
    71    39    38    1
    72    96    95    1
    73   121   119    1
    74    38    36   ar
    75    24    23    2
    76   148   147    1
    77    33    32    1
    78    33    34   ar
    79    49    48    1
    80    49    50    2
    81    48    47    1
    82   118   117    2
    83    32    29    1
    84    97    95    1
    85    91    92    1
    86    95    92    1
    87    36    34   ar
    88   119   120    1
    89   119   116    1
    90    28    29    1
    91   117   116    1
    92    45    44    1
    93    23    22    1
    94   147   146    1
    95    92    93    1
    96   146   145    1
    97    29    30    1
    98    21    22    1
    99   120   122    1
   100   116   115    1
   101    46    44    1
   102    44    41    1
   103    30    31    2
   104    22    25    1
   105   140   139    1
   106   143   144    1
   107   143   142    1
   108    25    26    1
   109    25    27    1
   110   104   102    1
   111    93    94    2
   112   145   142    1
   113    43    42    2
   114    41    42    1
   115    41    40    1
   116   139   137   ar
   117   139   138   ar
   118   142   141    1
   119   137   135   ar
   120   102   103    1
   121   102    99    1
   122   138   136   ar
   123   141   131   am
   124   135   134   ar
   125    99    98    1
   126    99   100    1
   127   136   134   ar
   128   108   107    2
   129   112   110   ar
   130   112   114   ar
   131   131   132    2
   132   131   130    1
   133   109   110    1
   134   109   106    1
   135   134   133    1
   136   107   106    1
   137   110   111   ar
   138   100   101    2
   139   114   113   ar
   140   106   105    1
   141   129   130    1
   142   130   133    1
   143   111   113   ar
