@<TRIPOS>MOLECULE
tmp/1e8hA00.pdb
 187 180 0 0 0
SMALL
GASTEIGER

@<TRIPOS>ATOM
      1  N         87.7860   53.8430   75.6430 N.3    83  TRP83      -0.1228
      2  CA        89.1830   53.5970   75.2210 C.3    83  TRP83       0.1722
      3  C         89.5280   52.1880   75.6900 C.2    83  TRP83       0.2437
      4  O         89.8100   51.9530   76.8670 O.2    83  TRP83      -0.2733
      5  CB        90.1410   54.6480   75.8060 C.3    83  TRP83       0.0563
      6  CG        91.5540   54.4870   75.3640 C.ar   83  TRP83       0.0003
      7  CD1       92.5800   53.8370   76.0130 C.ar   83  TRP83       0.0946
      8  CD2       92.1140   54.9700   74.1290 C.ar   83  TRP83       0.0152
      9  NE1       93.7200   53.9050   75.2520 N.ar   83  TRP83      -0.2442
     10  CE2       93.4690   54.5710   74.0970 C.ar   83  TRP83       0.0810
     11  CE3       91.5740   55.6840   73.0460 C.ar   83  TRP83       0.0012
     12  CZ2       94.3040   54.8610   73.0160 C.ar   83  TRP83       0.0191
     13  CZ3       92.4160   56.0150   72.0100 C.ar   83  TRP83       0.0001
     14  CH2       93.7640   55.5800   71.9980 C.ar   83  TRP83       0.0015
     15  N         89.4410   51.2050   74.8190 N.am   84  PRO84      -0.2718
     16  CA        89.6860   49.8130   75.1670 C.3    84  PRO84       0.1535
     17  C         91.1410   49.3820   75.2910 C.2    84  PRO84       0.2598
     18  O         91.8540   49.4240   74.2760 O.2    84  PRO84      -0.2715
     19  CB        89.0040   49.0520   74.0160 C.3    84  PRO84       0.0310
     20  CG        89.0800   49.9650   72.8380 C.3    84  PRO84       0.0237
     21  CD        89.1000   51.3740   73.3790 C.3    84  PRO84       0.0939
     22  N         91.6070   48.9140   76.4500 N.am   85  ILE85      -0.1964
     23  CA        92.9460   48.3660   76.5980 C.3    85  ILE85       0.1727
     24  C         92.9090   46.8750   77.0060 C.2    85  ILE85       0.2617
     25  O         91.9040   46.3410   77.4780 O.2    85  ILE85      -0.2715
     26  CB        93.7810   49.0760   77.6710 C.3    85  ILE85       0.0290
     27  CG1       93.1120   48.9440   79.0520 C.3    85  ILE85       0.0022
     28  CG2       93.9580   50.5440   77.3210 C.3    85  ILE85       0.0023
     29  CD1       94.0910   48.8200   80.2110 C.3    85  ILE85       0.0001
     30  N         94.0190   46.1690   76.7960 N.am   86  SER86      -0.1936
     31  CA        94.2080   44.8080   77.2320 C.3    86  SER86       0.2055
     32  C         95.0530   44.7910   78.5070 C.2    86  SER86       0.2643
     33  O         94.6440   44.2980   79.5460 O.2    86  SER86      -0.2714
     34  CB        94.9240   43.9740   76.1850 C.3    86  SER86       0.2130
     35  OG        94.3230   44.1290   74.9360 O.3    86  SER86      -0.2179
     36  N         96.2710   45.3430   78.4460 N.am   87  ILE87      -0.1963
     37  CA        97.1720   45.3530   79.5920 C.3    87  ILE87       0.1727
     38  C         97.6130   46.7480   79.9880 C.2    87  ILE87       0.2617
     39  O         97.5870   47.0710   81.1800 O.2    87  ILE87      -0.2715
     40  CB        98.3650   44.4070   79.3150 C.3    87  ILE87       0.0290
     41  CG1       97.9540   42.9320   79.4380 C.3    87  ILE87       0.0022
     42  CG2       99.5280   44.7040   80.2530 C.3    87  ILE87       0.0023
     43  CD1       97.4430   42.5430   80.8170 C.3    87  ILE87       0.0001
     44  N         98.1030   47.5940   79.1000 N.am   88  GLY88      -0.1940
     45  CA        98.4590   48.9640   79.3810 C.3    88  GLY88       0.2014
     46  C         99.8620   49.1970   79.8860 C.2    88  GLY88       0.2639
     47  O        100.2420   50.2320   80.4500 O.2    88  GLY88      -0.2714
     48  N        100.6990   48.1890   79.6340 N.am   89  ARG89      -0.1963
     49  CA       102.0780   48.2060   80.0700 C.3    89  ARG89       0.1729
     50  C        103.0090   48.9700   79.1590 C.2    89  ARG89       0.2616
     51  O        104.1560   49.2110   79.5970 O.2    89  ARG89      -0.2715
     52  CB       102.5310   46.7410   80.1920 C.3    89  ARG89       0.0348
     53  CG       102.6150   46.2790   81.6210 C.3    89  ARG89       0.0492
     54  CD       102.8680   44.8010   81.8290 C.3    89  ARG89       0.2205
     55  NE       102.5420   44.4640   83.2040 N.pl3  89  ARG89      -0.0865
     56  CZ       102.0270   43.4140   83.8260 C.cat  89  ARG89       0.5346
     57  NH1      101.6410   42.2880   83.2440 N.pl3  89  ARG89       0.1354
     58  NH2      101.8910   43.5390   85.1550 N.pl3  89  ARG89       0.1354
     59  N        102.6120   49.3450   77.9330 N.am   90  ASN90      -0.1972
     60  CA       103.6190   49.9850   77.0810 C.3    90  ASN90       0.1688
     61  C        103.7840   51.4910   77.1650 C.2    90  ASN90       0.2292
     62  O        103.5250   52.2780   76.2390 O.2    90  ASN90      -0.2864
     63  CB       103.4280   49.5210   75.6430 C.3    90  ASN90       0.1181
     64  CG       104.7490   49.5700   74.9070 C.2    90  ASN90       0.2629
     65  OD1      105.6530   50.3020   75.3300 O.2    90  ASN90      -0.2716
     66  ND2      104.8820   48.8250   73.8260 N.am   90  ASN90      -0.0877
     67  N        101.0720   53.9490   77.3870 N.3    95  GLY95      -0.1225
     68  CA       100.3910   53.0220   78.2620 C.3    95  GLY95       0.1811
     69  C         98.9010   53.0030   77.9560 C.2    95  GLY95       0.2280
     70  O         98.5080   53.1250   76.7870 O.2    95  GLY95      -0.2866
     71  N         90.1140   45.5130   79.6640 N.3   108  MET108     -0.1245
     72  CA        89.6560   44.1800   79.2470 C.3   108  MET108      0.1570
     73  C         90.4760   43.0600   79.8730 C.2   108  MET108      0.2261
     74  O         89.9320   41.9950   80.2320 O.2   108  MET108     -0.2867
     75  CB        89.6700   44.1600   77.7310 C.3   108  MET108      0.0387
     76  CG        88.8320   45.1820   76.9810 C.3   108  MET108      0.0595
     77  SD        87.0720   44.7760   76.7370 S.3   108  MET108     -0.1393
     78  CE        87.3200   43.1330   76.0570 C.3   108  MET108      0.0692
     79  N         92.1030   39.1540   76.0450 N.3   129  PRO129     -0.2116
     80  CA        92.9530   40.3180   76.2050 C.3   129  PRO129      0.1372
     81  C         93.9660   40.2280   77.3220 C.2   129  PRO129      0.2244
     82  O         95.0360   40.7950   77.2720 O.2   129  PRO129     -0.2868
     83  CB        91.9220   41.4270   76.4800 C.3   129  PRO129      0.0268
     84  CG        90.6080   40.9700   76.0630 C.3   129  PRO129      0.0207
     85  CD        90.6860   39.5260   75.7100 C.3   129  PRO129      0.0892
     86  N        103.4850   42.0690   78.4320 N.3   159  GLY159     -0.1210
     87  CA       102.4650   42.6560   77.5610 C.3   159  GLY159      0.1956
     88  C        101.4130   41.5860   77.2980 C.2   159  GLY159      0.2612
     89  O        101.5690   40.4410   77.7270 O.2   159  GLY159     -0.2717
     90  N        100.3710   41.9290   76.5940 N.am  160  SER160     -0.1952
     91  CA        99.2960   41.0650   76.1810 C.3   160  SER160      0.1924
     92  C         99.5240   40.4680   74.7900 C.2   160  SER160      0.2314
     93  O         99.8410   41.1240   73.7860 O.2   160  SER160     -0.2863
     94  CB        98.0230   41.9110   76.2080 C.3   160  SER160      0.2116
     95  OG        97.0310   41.4500   75.3250 O.3   160  SER160     -0.2180
     96  N         97.2440   39.1140   72.6940 N.3   162  LEU162     -0.1231
     97  CA        96.3540   39.7000   71.6850 C.3   162  LEU162      0.1693
     98  C         96.6490   41.1930   71.5340 C.2   162  LEU162      0.2593
     99  O         96.7900   41.6980   70.4100 O.2   162  LEU162     -0.2718
    100  CB        94.9270   39.4200   71.9470 C.3   162  LEU162      0.0284
    101  CG        93.8010   40.2690   72.4240 C.3   162  LEU162      0.0019
    102  CD1       93.5640   41.6520   71.8140 C.3   162  LEU162      0.0001
    103  CD2       92.5430   39.4380   72.1300 C.3   162  LEU162      0.0001
    104  N         96.8120   41.8980   72.6340 N.am  163  GLY163     -0.1942
    105  CA        97.1150   43.3320   72.5520 C.3   163  GLY163      0.2014
    106  C         98.2880   43.6180   71.6170 C.2   163  GLY163      0.2638
    107  O         98.2180   44.3820   70.6520 O.2   163  GLY163     -0.2714
    108  N         99.4040   42.9230   71.8870 N.am  164  ASN164     -0.1972
    109  CA       100.5910   43.0590   71.0690 C.3   164  ASN164      0.1688
    110  C        100.3020   42.7450   69.6170 C.2   164  ASN164      0.2292
    111  O        100.6850   43.5000   68.7000 O.2   164  ASN164     -0.2864
    112  CB       101.6740   42.2070   71.6800 C.3   164  ASN164      0.1181
    113  CG       103.0560   42.4200   71.1050 C.2   164  ASN164      0.2629
    114  OD1      103.3740   41.9870   69.9990 O.2   164  ASN164     -0.2716
    115  ND2      103.9220   43.1050   71.8500 N.am  164  ASN164     -0.0877
    116  N         97.2970   42.8690   67.8420 N.3   166  VAL166     -0.1231
    117  CA        96.4370   43.7490   67.0500 C.3   166  VAL166      0.1692
    118  C         97.1910   45.0340   66.7530 C.2   166  VAL166      0.2591
    119  O         97.1760   45.5930   65.6580 O.2   166  VAL166     -0.2718
    120  CB        95.0390   43.9260   67.6730 C.3   166  VAL166      0.0266
    121  CG1       94.3830   42.5730   67.9310 C.3   166  VAL166      0.0020
    122  CG2       94.9770   44.7170   68.9740 C.3   166  VAL166      0.0020
    123  N         98.0770   45.4710   67.6460 N.am  167  GLU167     -0.1979
    124  CA        98.9790   46.5980   67.4450 C.3   167  GLU167      0.1602
    125  C        100.1660   46.3060   66.5330 C.2   167  GLU167      0.2287
    126  O        101.0540   47.1460   66.3280 O.2   167  GLU167     -0.2864
    127  CB        99.5230   47.1440   68.7590 C.3   167  GLU167      0.0415
    128  CG        98.5640   48.0430   69.5090 C.3   167  GLU167      0.1163
    129  CD        97.7850   49.0200   68.6380 C.2   167  GLU167      0.3649
    130  OE1       96.7850   48.6160   67.9610 O.co2 167  GLU167     -0.2457
    131  OE2       98.1740   50.2070   68.5800 O.co2 167  GLU167     -0.2457
    132  N         90.7780   45.7880   62.1150 N.3   239  PHE239     -0.1298
    133  CA        90.8890   45.8650   63.5590 C.3   239  PHE239      0.1290
    134  C         92.3430   45.9930   63.9810 C.3   239  PHE239      0.2013
    135  O         92.4580   45.9470   65.2330 O.3   239  PHE239     -0.2188
    136  CB        90.1070   44.7770   64.2730 C.3   239  PHE239      0.0480
    137  CG        88.7110   44.6370   63.6840 C.ar  239  PHE239     -0.0206
    138  CD1       87.7420   45.5190   64.1350 C.ar  239  PHE239     -0.0042
    139  CD2       88.3670   43.7040   62.7180 C.ar  239  PHE239     -0.0042
    140  CE1       86.4630   45.4920   63.6350 C.ar  239  PHE239     -0.0003
    141  CE2       87.0880   43.6490   62.2210 C.ar  239  PHE239     -0.0003
    142  CZ        86.1550   44.5520   62.6820 C.ar  239  PHE239     -0.0000
    143  N         93.4620   50.2910   65.0690 N.3   242  SER242     -0.1217
    144  CA        92.2940   51.0240   64.6150 C.3   242  SER242      0.1889
    145  C         91.3090   51.2840   65.7410 C.2   242  SER242      0.2288
    146  O         91.4610   50.7280   66.8240 O.2   242  SER242     -0.2866
    147  CB        91.5550   50.2460   63.5370 C.3   242  SER242      0.2089
    148  OG        90.9180   49.1730   64.2630 O.3   242  SER242     -0.2183
    149  N         86.6760   48.5270   66.4030 N.3   245  GLY245     -0.1210
    150  CA        85.8950   47.5870   67.2340 C.3   245  GLY245      0.1956
    151  C         86.6960   47.2630   68.5070 C.2   245  GLY245      0.2612
    152  O         87.7920   47.7950   68.6360 O.2   245  GLY245     -0.2717
    153  N         86.1390   46.5240   69.4050 N.am  246  ILE246     -0.1965
    154  CA        86.7510   46.0540   70.6220 C.3   246  ILE246      0.1727
    155  C         87.0570   44.5530   70.6100 C.2   246  ILE246      0.2616
    156  O         86.2160   43.6260   70.6050 O.2   246  ILE246     -0.2715
    157  CB        85.8480   46.3930   71.7950 C.3   246  ILE246      0.0290
    158  CG1       85.5820   47.9030   71.9390 C.3   246  ILE246      0.0022
    159  CG2       86.3730   45.7120   73.0550 C.3   246  ILE246      0.0023
    160  CD1       84.1040   48.0780   72.3950 C.3   246  ILE246      0.0001
    161  N         88.3490   44.2310   70.4830 N.am  247  VAL247     -0.1977
    162  CA        88.7780   42.8530   70.3130 C.3   247  VAL247      0.1596
    163  C         88.5720   42.0690   71.6050 C.2   247  VAL247      0.2287
    164  O         89.1330   42.4210   72.6400 O.2   247  VAL247     -0.2864
    165  CB        90.2440   42.7940   69.8370 C.3   247  VAL247      0.0276
    166  CG1       90.6420   41.3370   69.7350 C.3   247  VAL247      0.0022
    167  CG2       90.3660   43.5100   68.5020 C.3   247  VAL247      0.0022
    168  N        104.3530   53.0600   64.3600 N.3   489  ARG489     -0.1245
    169  CA       103.5480   53.1020   65.5920 C.3   489  ARG489      0.1563
    170  C        103.9760   54.2390   66.4630 C.2   489  ARG489      0.2260
    171  O        105.2110   54.4280   66.5480 O.2   489  ARG489     -0.2867
    172  CB       103.8190   51.7100   66.2330 C.3   489  ARG489      0.0307
    173  CG       103.0680   51.5490   67.5230 C.3   489  ARG489      0.0489
    174  CD       103.0110   50.1550   68.1210 C.3   489  ARG489      0.2205
    175  NE       102.3350   50.2460   69.4060 N.pl3 489  ARG489     -0.0865
    176  CZ       102.2500   49.4180   70.4290 C.cat 489  ARG489      0.5346
    177  NH1      102.8480   48.2340   70.4400 N.pl3 489  ARG489      0.1354
    178  NH2      101.5120   49.8670   71.4540 N.pl3 489  ARG489      0.1354
    179  N         92.1480   57.4240   67.7770 N.3   530  LYS530     -0.1245
    180  CA        93.1360   56.3760   67.5390 C.3   530  LYS530      0.1561
    181  C         93.6930   56.5200   66.1210 C.2   530  LYS530      0.2260
    182  O         92.9720   56.8200   65.1530 O.2   530  LYS530     -0.2867
    183  CB        92.5290   55.0210   67.8010 C.3   530  LYS530      0.0271
    184  CG        93.3980   53.8390   67.3800 C.3   530  LYS530      0.0035
    185  CD        94.6510   53.7390   68.1950 C.3   530  LYS530      0.0206
    186  CE        95.1790   52.3150   68.1340 C.3   530  LYS530      0.1093
    187  NZ        96.4770   52.1970   68.8760 N.3   530  LYS530     -0.1314
@<TRIPOS>BOND
     1   132   133    1
     2   141   142   ar
     3   141   139   ar
     4   142   140   ar
     5   139   137   ar
     6   147   148    1
     7   147   144    1
     8   133   134    1
     9   133   136    1
    10   140   138   ar
    11   137   138   ar
    12   137   136    1
    13   134   135    1
    14   168   169    1
    15   144   143    1
    16   144   145    1
    17   182   181    2
    18   169   172    1
    19   169   170    1
    20   119   118    2
    21   145   146    2
    22   181   180    1
    23   172   173    1
    24   126   125    2
    25   149   150    1
    26   170   171    2
    27   125   124    1
    28   118   117    1
    29   118   123   am
    30   117   120    1
    31   117   116    1
    32   150   151    1
    33   184   183    1
    34   184   185    1
    35   124   123    1
    36   124   127    1
    37   173   174    1
    38   180   179    1
    39   180   183    1
    40   120   121    1
    41   120   122    1
    42   130   129   ar
    43   174   175    1
    44   186   185    1
    45   186   187    1
    46   167   165    1
    47   151   152    2
    48   151   153   am
    49   131   129   ar
    50   129   128    1
    51   111   110    2
    52   127   128    1
    53   153   154    1
    54   175   176    2
    55   110   109    1
    56   166   165    1
    57   165   162    1
    58   114   113    2
    59   162   161    1
    60   162   163    1
    61    99    98    2
    62   176   177    1
    63   176   178    1
    64   161   155   am
    65   156   155    2
    66   155   154    1
    67   154   157    1
    68   107   106    2
    69   109   112    1
    70   109   108    1
    71   113   112    1
    72   113   115   am
    73    98    97    1
    74    98   104   am
    75   163   164    2
    76   106   108   am
    77   106   105    1
    78    97   100    1
    79    97    96    1
    80   157   158    1
    81   157   159    1
    82   102   101    1
    83   158   160    1
    84   100   101    1
    85    14    13   ar
    86    14    12   ar
    87    13    11   ar
    88   103   101    1
    89   105   104    1
    90    20    21    1
    91    20    19    1
    92    12    10   ar
    93    11     8   ar
    94    21    15    1
    95    93    92    2
    96    66    64   am
    97    19    16    1
    98    10     8   ar
    99    10     9   ar
   100     8     6   ar
   101    18    17    2
   102    92    91    1
   103    15    16    1
   104    15     3   am
   105    64    65    2
   106    64    63    1
   107    35    34    1
   108    16    17    1
   109     2     1    1
   110     2     3    1
   111     2     5    1
   112     9     7   ar
   113    17    22   am
   114    95    94    1
   115     6     5    1
   116     6     7   ar
   117    63    60    1
   118     3     4    2
   119    85    79    1
   120    85    84    1
   121    79    80    1
   122    78    77    1
   123    84    83    1
   124    91    94    1
   125    91    90    1
   126    34    31    1
   127    80    83    1
   128    80    81    1
   129    62    61    2
   130    22    23    1
   131    90    88   am
   132    23    24    1
   133    23    26    1
   134    77    76    1
   135    70    69    2
   136    30    24   am
   137    30    31    1
   138    76    75    1
   139    24    25    2
   140    60    61    1
   141    60    59    1
   142    31    32    1
   143    82    81    2
   144    88    87    1
   145    88    89    2
   146    28    26    1
   147    67    68    1
   148    87    86    1
   149    26    27    1
   150    75    72    1
   151    59    50   am
   152    69    68    1
   153    36    32   am
   154    36    37    1
   155    32    33    2
   156    27    29    1
   157    44    45    1
   158    44    38   am
   159    50    51    2
   160    50    49    1
   161    72    71    1
   162    72    73    1
   163    40    41    1
   164    40    37    1
   165    40    42    1
   166    45    46    1
   167    41    43    1
   168    37    38    1
   169    48    46   am
   170    48    49    1
   171    73    74    2
   172    46    47    2
   173    38    39    2
   174    49    52    1
   175    52    53    1
   176    53    54    1
   177    54    55    1
   178    55    56    2
   179    57    56    1
   180    56    58    1
