@<TRIPOS>MOLECULE
tmp/1e8mA00.pdb
 150 144 0 0 0
SMALL
GASTEIGER

@<TRIPOS>ATOM
      1  N         49.2520   42.7310   89.5960 N.3   173  PHE173     -0.1241
      2  CA        48.6210   41.5410   90.1950 C.3   173  PHE173      0.1605
      3  C         49.3710   41.2100   91.4770 C.2   173  PHE173      0.2264
      4  O         49.7370   40.0650   91.7340 O.2   173  PHE173     -0.2867
      5  CB        48.6700   40.3480   89.2240 C.3   173  PHE173      0.0534
      6  CG        48.2050   40.6810   87.8290 C.ar  173  PHE173     -0.0203
      7  CD1       46.9790   41.3060   87.6180 C.ar  173  PHE173     -0.0042
      8  CD2       49.0150   40.4000   86.7310 C.ar  173  PHE173     -0.0042
      9  CE1       46.5650   41.6500   86.3300 C.ar  173  PHE173     -0.0003
     10  CE2       48.6070   40.7430   85.4350 C.ar  173  PHE173     -0.0003
     11  CZ        47.3800   41.3690   85.2400 C.ar  173  PHE173     -0.0000
     12  N         52.5630   32.6380   90.0940 N.3   235  MET235     -0.1245
     13  CA        52.4420   33.9350   90.7700 C.3   235  MET235      0.1570
     14  C         52.3000   33.6450   92.2600 C.2   235  MET235      0.2261
     15  O         51.3310   33.0020   92.6830 O.2   235  MET235     -0.2867
     16  CB        51.1990   34.6630   90.2310 C.3   235  MET235      0.0387
     17  CG        51.2840   34.9130   88.7200 C.3   235  MET235      0.0595
     18  SD        49.7350   35.3630   87.9400 S.3   235  MET235     -0.1393
     19  CE        49.5560   37.0190   88.5350 C.3   235  MET235      0.0692
     20  N         49.7740   30.6410   92.5570 N.3   252  ARG252     -0.1245
     21  CA        48.7230   30.3720   91.5930 C.3   252  ARG252      0.1563
     22  C         49.2700   30.2590   90.1840 C.2   252  ARG252      0.2260
     23  O         50.3250   30.8020   89.8870 O.2   252  ARG252     -0.2867
     24  CB        47.6640   31.4810   91.6590 C.3   252  ARG252      0.0307
     25  CG        46.9530   31.4170   93.0040 C.3   252  ARG252      0.0489
     26  CD        45.8940   32.4520   93.2760 C.3   252  ARG252      0.2205
     27  NE        45.5540   32.4010   94.7030 N.pl3 252  ARG252     -0.0865
     28  CZ        44.6580   31.5850   95.2670 C.cat 252  ARG252      0.5346
     29  NH1       43.9460   30.7170   94.5410 N.pl3 252  ARG252      0.1354
     30  NH2       44.5350   31.5720   96.5940 N.pl3 252  ARG252      0.1354
     31  N         47.2550   30.2470   86.5610 N.3   254  GLY254     -0.1210
     32  CA        45.9840   30.1610   85.8900 C.3   254  GLY254      0.1956
     33  C         44.9180   30.7530   86.7880 C.2   254  GLY254      0.2612
     34  O         45.2190   31.3480   87.8240 O.2   254  GLY254     -0.2717
     35  N         43.6660   30.4870   86.4400 N.am  255  CYS255     -0.1970
     36  CA        42.5310   31.0600   87.1580 C.3   255  CYS255      0.1712
     37  C         41.6530   30.1650   88.0090 C.2   255  CYS255      0.2296
     38  O         40.6360   30.6250   88.5290 O.2   255  CYS255     -0.2864
     39  CB        41.6490   31.8340   86.1690 C.3   255  CYS255      0.0983
     40  SG        42.2720   33.4980   85.8080 S.3   255  CYS255     -0.0798
     41  N         27.3280   36.4660   82.7840 N.3   473  TYR473     -0.1241
     42  CA        28.7950   36.4280   82.7690 C.3   473  TYR473      0.1605
     43  C         29.1120   34.9580   82.4250 C.2   473  TYR473      0.2264
     44  O         29.3590   34.6340   81.2600 O.2   473  TYR473     -0.2867
     45  CB        29.3950   36.8510   84.1260 C.3   473  TYR473      0.0534
     46  CG        30.9130   36.8950   84.1690 C.ar  473  TYR473     -0.0201
     47  CD1       31.6220   37.9140   83.5300 C.ar  473  TYR473     -0.0009
     48  CD2       31.6270   35.9120   84.8420 C.ar  473  TYR473     -0.0009
     49  CE1       33.0290   37.9520   83.5870 C.ar  473  TYR473      0.0417
     50  CE2       33.0100   35.9440   84.9050 C.ar  473  TYR473      0.0417
     51  CZ        33.6960   36.9540   84.2660 C.ar  473  TYR473      0.1957
     52  OH        35.0700   36.9660   84.3150 O.3   473  TYR473     -0.2866
     53  N         34.7740   31.6130   85.4500 N.3   476  PHE476     -0.1241
     54  CA        35.7550   31.9740   86.4690 C.3   476  PHE476      0.1605
     55  C         35.3160   31.9200   87.9140 C.2   476  PHE476      0.2264
     56  O         35.8640   32.6250   88.7590 O.2   476  PHE476     -0.2867
     57  CB        36.3540   33.3400   86.1150 C.3   476  PHE476      0.0534
     58  CG        37.0140   33.3530   84.7680 C.ar  476  PHE476     -0.0203
     59  CD1       38.3410   32.9550   84.6440 C.ar  476  PHE476     -0.0042
     60  CD2       36.2770   33.6330   83.6150 C.ar  476  PHE476     -0.0042
     61  CE1       38.9310   32.8240   83.3940 C.ar  476  PHE476     -0.0003
     62  CE2       36.8580   33.5040   82.3580 C.ar  476  PHE476     -0.0003
     63  CZ        38.1890   33.0960   82.2500 C.ar  476  PHE476     -0.0000
     64  N         33.6050   41.3800   79.2090 N.3   554  ALA554     -0.1231
     65  CA        34.7980   40.5350   79.2260 C.3   554  ALA554      0.1694
     66  C         34.4070   39.0960   78.9430 C.2   554  ALA554      0.2592
     67  O         34.0400   38.8040   77.8050 O.2   554  ALA554     -0.2718
     68  CB        35.5210   40.6870   80.5370 C.3   554  ALA554      0.0304
     69  N         34.4940   38.1880   79.9180 N.am  555  ASN555     -0.1974
     70  CA        34.0200   36.8300   79.6580 C.3   555  ASN555      0.1688
     71  C         32.5150   36.9090   79.3130 C.2   555  ASN555      0.2292
     72  O         32.0030   36.0580   78.5840 O.2   555  ASN555     -0.2864
     73  CB        34.2440   35.9390   80.8800 C.3   555  ASN555      0.1181
     74  CG        33.5830   34.5810   80.7360 C.2   555  ASN555      0.2629
     75  OD1       33.9490   33.7890   79.8750 O.2   555  ASN555     -0.2716
     76  ND2       32.6170   34.3100   81.5830 N.am  555  ASN555     -0.0877
     77  N         36.2160   39.1870   75.2110 N.3   580  VAL580     -0.1245
     78  CA        37.2610   38.3030   74.7000 C.3   580  VAL580      0.1561
     79  C         36.6410   37.7280   73.4310 C.2   580  VAL580      0.2260
     80  O         35.7670   36.8520   73.4940 O.2   580  VAL580     -0.2867
     81  CB        37.5870   37.1530   75.6980 C.3   580  VAL580      0.0252
     82  CG1       38.7920   36.3390   75.1970 C.3   580  VAL580      0.0019
     83  CG2       37.8480   37.7140   77.0930 C.3   580  VAL580      0.0019
     84  N         47.8690   39.2350   80.5040 N.3   591  ILE591     -0.1245
     85  CA        47.6050   38.1740   81.4750 C.3   591  ILE591      0.1561
     86  C         46.6390   37.1050   80.9190 C.2   591  ILE591      0.2260
     87  O         46.2100   36.1940   81.6520 O.2   591  ILE591     -0.2867
     88  CB        47.0870   38.7900   82.8260 C.3   591  ILE591      0.0252
     89  CG1       47.1320   37.7780   83.9870 C.3   591  ILE591      0.0019
     90  CG2       45.6710   39.3060   82.6620 C.3   591  ILE591      0.0019
     91  CD1       48.4920   37.1500   84.2750 C.3   591  ILE591      0.0001
     92  N         46.5160   33.2840   81.7390 N.3   594  ALA594     -0.1231
     93  CA        45.9110   32.7590   82.9560 C.3   594  ALA594      0.1694
     94  C         44.5090   32.2070   82.7500 C.2   594  ALA594      0.2592
     95  O         44.0150   31.4540   83.5880 O.2   594  ALA594     -0.2718
     96  CB        45.8700   33.8480   84.0310 C.3   594  ALA594      0.0304
     97  N         43.8690   32.5680   81.6380 N.am  595  TRP595     -0.1976
     98  CA        42.4880   32.1530   81.4050 C.3   595  TRP595      0.1640
     99  C         42.3200   30.7990   80.7550 C.2   595  TRP595      0.2290
    100  O         41.1980   30.3310   80.5770 O.2   595  TRP595     -0.2864
    101  CB        41.7450   33.1960   80.5780 C.3   595  TRP595      0.0576
    102  CG        41.9480   34.5990   81.0020 C.ar  595  TRP595      0.0006
    103  CD1       42.2840   35.0650   82.2570 C.ar  595  TRP595      0.0946
    104  CD2       41.9020   35.7390   80.1310 C.ar  595  TRP595      0.0152
    105  NE1       42.4820   36.4390   82.1910 N.ar  595  TRP595     -0.2442
    106  CE2       42.2660   36.8660   80.9130 C.ar  595  TRP595      0.0810
    107  CE3       41.6390   35.9070   78.7650 C.ar  595  TRP595      0.0012
    108  CZ2       42.3380   38.1640   80.3500 C.ar  595  TRP595      0.0191
    109  CZ3       41.7200   37.1830   78.2180 C.ar  595  TRP595      0.0001
    110  CH2       42.0820   38.2960   79.0090 C.ar  595  TRP595      0.0015
    111  N         39.1220   28.3140   79.5480 N.3   599  TYR599     -0.1241
    112  CA        38.8840   28.1500   78.1130 C.3   599  TYR599      0.1605
    113  C         39.6130   27.0450   77.3550 C.2   599  TYR599      0.2264
    114  O         39.1210   26.5650   76.3220 O.2   599  TYR599     -0.2867
    115  CB        39.2400   29.4680   77.4040 C.3   599  TYR599      0.0534
    116  CG        38.5120   30.7090   77.8930 C.ar  599  TYR599     -0.0201
    117  CD1       37.1440   30.6750   78.2070 C.ar  599  TYR599     -0.0009
    118  CD2       39.1720   31.9330   77.9580 C.ar  599  TYR599     -0.0009
    119  CE1       36.4640   31.8480   78.5670 C.ar  599  TYR599      0.0417
    120  CE2       38.5000   33.1040   78.3000 C.ar  599  TYR599      0.0417
    121  CZ        37.1390   33.0540   78.6020 C.ar  599  TYR599      0.1957
    122  OH        36.4430   34.2220   78.8940 O.3   599  TYR599     -0.2866
    123  N         43.7320   44.3310   80.4560 N.3   643  ARG643     -0.1231
    124  CA        43.2560   43.0480   81.0000 C.3   643  ARG643      0.1694
    125  C         42.8090   42.2260   79.7680 C.2   643  ARG643      0.2591
    126  O         43.2950   41.1140   79.5560 O.2   643  ARG643     -0.2718
    127  CB        42.0890   43.2540   81.9820 C.3   643  ARG643      0.0321
    128  CG        41.5760   41.9590   82.5930 C.3   643  ARG643      0.0489
    129  CD        42.5890   41.2840   83.5020 C.3   643  ARG643      0.2205
    130  NE        42.8920   42.1370   84.6420 N.pl3 643  ARG643     -0.0865
    131  CZ        42.1960   42.1610   85.7760 C.cat 643  ARG643      0.5346
    132  NH1       41.1520   41.3550   85.9560 N.pl3 643  ARG643      0.1354
    133  NH2       42.4990   43.0550   86.7130 N.pl3 643  ARG643      0.1354
    134  N         41.8870   42.7820   78.9680 N.am  644  VAL644     -0.1980
    135  CA        41.4410   42.1380   77.7150 C.3   644  VAL644      0.1595
    136  C         41.8460   43.1520   76.6370 C.2   644  VAL644      0.2287
    137  O         41.1500   44.1550   76.4180 O.2   644  VAL644     -0.2864
    138  CB        39.8980   41.9020   77.6700 C.3   644  VAL644      0.0276
    139  CG1       39.4660   41.3450   76.2880 C.3   644  VAL644      0.0022
    140  CG2       39.4830   40.9180   78.7640 C.3   644  VAL644      0.0022
    141  N         39.9540   48.2890   81.5760 N.3   680  HIS680     -0.1241
    142  CA        38.9740   47.2130   81.7170 C.3   680  HIS680      0.1621
    143  C         37.7040   47.5980   82.4680 C.2   680  HIS680      0.2264
    144  O         36.6450   47.0190   82.2250 O.2   680  HIS680     -0.2867
    145  CB        39.6310   45.9820   82.3530 C.3   680  HIS680      0.0745
    146  CG        38.9050   44.7020   82.0660 C.ar  680  HIS680      0.0817
    147  ND1       38.5890   44.2930   80.7870 N.ar  680  HIS680     -0.2268
    148  CD2       38.4710   43.7250   82.8970 C.ar  680  HIS680      0.1154
    149  CE1       37.9970   43.1130   80.8410 C.ar  680  HIS680      0.1986
    150  NE2       37.9110   42.7480   82.1070 N.ar  680  HIS680     -0.2212
@<TRIPOS>BOND
     1    79    80    2
     2    79    78    1
     3    78    77    1
     4    78    81    1
     5    82    81    1
     6    81    83    1
     7   139   138    1
     8   114   113    2
     9   137   136    2
    10   136   135    1
    11   113   112    1
    12   115   116    1
    13   115   112    1
    14   138   135    1
    15   138   140    1
    16   135   134    1
    17    67    66    2
    18   116   118   ar
    19   116   117   ar
    20   118   120   ar
    21   112   111    1
    22   117   119   ar
    23   109   107   ar
    24   109   110   ar
    25   120   121   ar
    26   119   121   ar
    27    72    71    2
    28   121   122    1
    29   107   104   ar
    30    66    65    1
    31    66    69   am
    32   134   125   am
    33   110   108   ar
    34    64    65    1
    35    65    68    1
    36    71    70    1
    37   126   125    2
    38    70    69    1
    39    70    73    1
    40   125   124    1
    41    75    74    2
    42   104   106   ar
    43   104   102   ar
    44   108   106   ar
    45   123   124    1
    46    84    85    1
    47   100    99    2
    48   101   102    1
    49   101    98    1
    50    74    73    1
    51    74    76   am
    52    99    98    1
    53   147   149   ar
    54   147   146   ar
    55   149   150   ar
    56   106   105   ar
    57    86    85    1
    58    86    87    2
    59   124   127    1
    60   102   103   ar
    61    44    43    2
    62    98    97    1
    63    85    88    1
    64   141   142    1
    65    97    94   am
    66   142   145    1
    67   142   143    1
    68    92    93    1
    69   127   128    1
    70   146   145    1
    71   146   148   ar
    72   150   148   ar
    73   105   103   ar
    74   144   143    2
    75    63    62   ar
    76    63    61   ar
    77    62    60   ar
    78    43    42    1
    79   128   129    1
    80    90    88    1
    81    94    93    1
    82    94    95    2
    83    42    41    1
    84    42    45    1
    85    88    89    1
    86    93    96    1
    87    61    59   ar
    88   129   130    1
    89    47    49   ar
    90    47    46   ar
    91    49    51   ar
    92    60    58   ar
    93    89    91    1
    94    45    46    1
    95    46    48   ar
    96    51    52    1
    97    51    50   ar
    98   130   131    2
    99    59    58   ar
   100    58    57    1
   101    48    50   ar
   102    11    10   ar
   103    11     9   ar
   104    10     8   ar
   105    53    54    1
   106   131   132    1
   107   131   133    1
   108    40    39    1
   109    32    31    1
   110    32    33    1
   111    57    54    1
   112    39    36    1
   113     9     7   ar
   114    35    33   am
   115    35    36    1
   116    54    55    1
   117     8     6   ar
   118    33    34    2
   119    36    37    1
   120     7     6   ar
   121     6     5    1
   122    55    56    2
   123    18    19    1
   124    18    17    1
   125    37    38    2
   126    17    16    1
   127     5     2    1
   128     1     2    1
   129    23    22    2
   130    12    13    1
   131    22    21    1
   132     2     3    1
   133    16    13    1
   134    13    14    1
   135     3     4    2
   136    21    24    1
   137    21    20    1
   138    24    25    1
   139    14    15    2
   140    25    26    1
   141    26    27    1
   142    29    28    1
   143    27    28    2
   144    28    30    1
