@<TRIPOS>MOLECULE
tmp/1e8nA00.pdb
 220 210 0 0 0
SMALL
GASTEIGER

@<TRIPOS>ATOM
      1  N         44.1110   51.2680   93.0790 N.3   128  ARG128     -0.1245
      2  CA        44.0020   49.8610   92.7160 C.3   128  ARG128      0.1563
      3  C         44.8430   49.0580   93.7080 C.2   128  ARG128      0.2260
      4  O         46.0340   48.8140   93.4740 O.2   128  ARG128     -0.2867
      5  CB        44.4790   49.5870   91.2800 C.3   128  ARG128      0.0307
      6  CG        44.1420   48.1430   90.8520 C.3   128  ARG128      0.0489
      7  CD        44.7950   47.6840   89.5610 C.3   128  ARG128      0.2205
      8  NE        44.2960   48.4080   88.3960 N.pl3 128  ARG128     -0.0865
      9  CZ        43.2370   48.0690   87.6730 C.cat 128  ARG128      0.5346
     10  NH1       42.5210   46.9970   87.9760 N.pl3 128  ARG128      0.1354
     11  NH2       42.9200   48.7950   86.6100 N.pl3 128  ARG128      0.1354
     12  N         50.2450   48.9850   87.7960 N.3   151  VAL151     -0.1245
     13  CA        50.1580   49.7250   89.0430 C.3   151  VAL151      0.1561
     14  C         51.4770   50.3370   89.4660 C.2   151  VAL151      0.2260
     15  O         52.5340   49.8020   89.1720 O.2   151  VAL151     -0.2867
     16  CB        49.7150   48.7680   90.1840 C.3   151  VAL151      0.0252
     17  CG1       49.8500   49.4260   91.5480 C.3   151  VAL151      0.0019
     18  CG2       48.2810   48.3260   89.9630 C.3   151  VAL151      0.0019
     19  N         48.9340   42.6210   88.9960 N.3   173  PHE173     -0.1227
     20  CA        48.3260   41.4380   89.6190 C.3   173  PHE173      0.1736
     21  C         49.1070   41.0800   90.8810 C.2   173  PHE173      0.2596
     22  O         49.4380   39.9190   91.1200 O.2   173  PHE173     -0.2718
     23  CB        48.3180   40.2700   88.6310 C.3   173  PHE173      0.0547
     24  CG        47.7170   40.6140   87.2980 C.ar  173  PHE173     -0.0202
     25  CD1       46.4470   41.1940   87.2130 C.ar  173  PHE173     -0.0042
     26  CD2       48.4230   40.3590   86.1300 C.ar  173  PHE173     -0.0042
     27  CE1       45.8980   41.5140   85.9720 C.ar  173  PHE173     -0.0003
     28  CE2       47.8770   40.6780   84.8860 C.ar  173  PHE173     -0.0003
     29  CZ        46.6150   41.2550   84.8180 C.ar  173  PHE173     -0.0000
     30  N         49.3270   42.0920   91.7070 N.am  174  SER174     -0.1938
     31  CA        50.1320   41.9700   92.9080 C.3   174  SER174      0.2055
     32  C         49.3940   41.9790   94.2250 C.2   174  SER174      0.2643
     33  O         48.3750   42.6350   94.3630 O.2   174  SER174     -0.2714
     34  CB        51.1380   43.1320   92.9110 C.3   174  SER174      0.2130
     35  OG        51.9000   43.1880   94.1080 O.3   174  SER174     -0.2179
     36  N         49.8770   41.1840   95.1680 N.am  175  CYS175     -0.1967
     37  CA        49.3080   41.2220   96.5080 C.3   175  CYS175      0.1712
     38  C         50.2100   42.2580   97.2050 C.2   175  CYS175      0.2296
     39  O         51.1880   42.7240   96.6170 O.2   175  CYS175     -0.2864
     40  CB        49.4150   39.8600   97.1900 C.3   175  CYS175      0.0983
     41  SG        48.3130   38.6150   96.4860 S.3   175  CYS175     -0.0798
     42  N         52.2410   32.4830   89.3350 N.3   235  MET235     -0.1245
     43  CA        52.1180   33.7670   90.0190 C.3   235  MET235      0.1570
     44  C         51.9920   33.4730   91.5120 C.2   235  MET235      0.2261
     45  O         51.0580   32.7810   91.9150 O.2   235  MET235     -0.2867
     46  CB        50.8770   34.5220   89.5290 C.3   235  MET235      0.0387
     47  CG        50.9370   34.8060   88.0410 C.3   235  MET235      0.0595
     48  SD        49.3770   35.3130   87.2740 S.3   235  MET235     -0.1393
     49  CE        49.2120   36.9440   87.9630 C.3   235  MET235      0.0692
     50  N         49.5040   30.4310   91.8610 N.3   252  ARG252     -0.1245
     51  CA        48.4530   30.1190   90.9110 C.3   252  ARG252      0.1563
     52  C         49.0110   30.0260   89.5040 C.2   252  ARG252      0.2260
     53  O         50.0670   30.5950   89.1990 O.2   252  ARG252     -0.2867
     54  CB        47.3700   31.2070   90.9470 C.3   252  ARG252      0.0307
     55  CG        46.6320   31.3030   92.2830 C.3   252  ARG252      0.0489
     56  CD        45.4770   32.2850   92.2300 C.3   252  ARG252      0.2205
     57  NE        44.7860   32.3730   93.5190 N.pl3 252  ARG252     -0.0865
     58  CZ        43.9190   31.4750   93.9830 C.cat 252  ARG252      0.5346
     59  NH1       43.6150   30.3930   93.2760 N.pl3 252  ARG252      0.1354
     60  NH2       43.3370   31.6710   95.1590 N.pl3 252  ARG252      0.1354
     61  N         46.8740   29.9710   85.9800 N.3   254  GLY254     -0.1210
     62  CA        45.5750   29.9200   85.3400 C.3   254  GLY254      0.1956
     63  C         44.5110   30.5120   86.2470 C.2   254  GLY254      0.2612
     64  O         44.8230   31.1110   87.2880 O.2   254  GLY254     -0.2717
     65  N         43.2550   30.2720   85.8980 N.am  255  CYS255     -0.1970
     66  CA        42.1190   30.8300   86.6230 C.3   255  CYS255      0.1712
     67  C         41.2420   29.9120   87.4730 C.2   255  CYS255      0.2296
     68  O         40.2390   30.3630   88.0320 O.2   255  CYS255     -0.2864
     69  CB        41.2370   31.6000   85.6470 C.3   255  CYS255      0.0983
     70  SG        41.8990   33.2250   85.1930 S.3   255  CYS255     -0.0798
     71  N         20.9540   39.9290   81.2350 N.3   471  TYR471     -0.1241
     72  CA        22.3840   39.9160   81.5230 C.3   471  TYR471      0.1605
     73  C         22.9190   38.5410   81.9160 C.2   471  TYR471      0.2264
     74  O         22.2500   37.7920   82.6320 O.2   471  TYR471     -0.2867
     75  CB        22.6650   40.8730   82.6870 C.3   471  TYR471      0.0534
     76  CG        24.1230   40.9800   83.0550 C.ar  471  TYR471     -0.0201
     77  CD1       24.9710   41.8340   82.3570 C.ar  471  TYR471     -0.0009
     78  CD2       24.6630   40.2200   84.1040 C.ar  471  TYR471     -0.0009
     79  CE1       26.3350   41.9300   82.6770 C.ar  471  TYR471      0.0417
     80  CE2       26.0360   40.3000   84.4380 C.ar  471  TYR471      0.0417
     81  CZ        26.8650   41.1660   83.7170 C.ar  471  TYR471      0.1957
     82  OH        28.2170   41.2680   84.0160 O.3   471  TYR471     -0.2866
     83  N         26.9830   36.1570   82.4170 N.3   473  TYR473     -0.1241
     84  CA        28.4490   36.1070   82.4060 C.3   473  TYR473      0.1605
     85  C         28.7710   34.6410   82.0710 C.2   473  TYR473      0.2264
     86  O         29.0810   34.3240   80.9190 O.2   473  TYR473     -0.2867
     87  CB        29.0360   36.5370   83.7640 C.3   473  TYR473      0.0534
     88  CG        30.5470   36.5580   83.8230 C.ar  473  TYR473     -0.0201
     89  CD1       31.2820   37.5470   83.1570 C.ar  473  TYR473     -0.0009
     90  CD2       31.2370   35.5850   84.5330 C.ar  473  TYR473     -0.0009
     91  CE1       32.6890   37.5560   83.2010 C.ar  473  TYR473      0.0417
     92  CE2       32.6090   35.5860   84.5870 C.ar  473  TYR473      0.0417
     93  CZ        33.3340   36.5560   83.9240 C.ar  473  TYR473      0.1957
     94  OH        34.6920   36.4620   83.9420 O.3   473  TYR473     -0.2866
     95  N         34.4570   31.2890   85.0020 N.3   476  PHE476     -0.1241
     96  CA        35.4460   31.6160   86.0130 C.3   476  PHE476      0.1605
     97  C         35.0200   31.5290   87.4770 C.2   476  PHE476      0.2264
     98  O         35.6140   32.1780   88.3440 O.2   476  PHE476     -0.2867
     99  CB        36.0570   32.9820   85.6500 C.3   476  PHE476      0.0534
    100  CG        36.7410   32.9850   84.3000 C.ar  476  PHE476     -0.0203
    101  CD1       38.0690   32.6000   84.2100 C.ar  476  PHE476     -0.0042
    102  CD2       36.0460   33.2630   83.1170 C.ar  476  PHE476     -0.0042
    103  CE1       38.7000   32.4750   82.9700 C.ar  476  PHE476     -0.0003
    104  CE2       36.6720   33.1370   81.8660 C.ar  476  PHE476     -0.0003
    105  CZ        37.9960   32.7410   81.7990 C.ar  476  PHE476     -0.0000
    106  N         32.5980   32.7230   88.8510 N.3   478  ILE478     -0.1245
    107  CA        32.0040   33.9780   89.3260 C.3   478  ILE478      0.1561
    108  C         30.4860   33.8450   89.4780 C.2   478  ILE478      0.2260
    109  O         29.7950   33.3710   88.5730 O.2   478  ILE478     -0.2867
    110  CB        32.3160   35.1490   88.3460 C.3   478  ILE478      0.0252
    111  CG1       33.8340   35.3160   88.1760 C.3   478  ILE478      0.0019
    112  CG2       31.7220   36.4580   88.8680 C.3   478  ILE478      0.0019
    113  CD1       34.5750   35.5610   89.4620 C.3   478  ILE478      0.0001
    114  N         29.8060   41.3370   79.7310 N.3   553  GLY553     -0.1210
    115  CA        31.1260   41.9460   79.6460 C.3   553  GLY553      0.1956
    116  C         32.2640   40.9440   79.7720 C.2   553  GLY553      0.2612
    117  O         32.2070   40.0330   80.6050 O.2   553  GLY553     -0.2717
    118  N         33.2930   41.1110   78.9470 N.am  554  ALA554     -0.1965
    119  CA        34.4770   40.2490   78.9590 C.3   554  ALA554      0.1728
    120  C         34.0430   38.8200   78.6120 C.2   554  ALA554      0.2616
    121  O         33.6650   38.5710   77.4650 O.2   554  ALA554     -0.2715
    122  CB        35.1630   40.3390   80.3090 C.3   554  ALA554      0.0334
    123  N         34.1620   37.8700   79.5410 N.am  555  ASN555     -0.1972
    124  CA        33.6670   36.5180   79.2480 C.3   555  ASN555      0.1688
    125  C         32.1570   36.6190   78.9200 C.2   555  ASN555      0.2292
    126  O         31.6200   35.8070   78.1530 O.2   555  ASN555     -0.2864
    127  CB        33.9460   35.5840   80.4400 C.3   555  ASN555      0.1181
    128  CG        33.2840   34.2120   80.2960 C.2   555  ASN555      0.2629
    129  OD1       33.6260   33.4180   79.4310 O.2   555  ASN555     -0.2716
    130  ND2       32.3380   33.9320   81.1750 N.am  555  ASN555     -0.0877
    131  N         33.8210   44.9030   76.2590 N.3   578  VAL578     -0.1245
    132  CA        35.1770   44.3660   76.3780 C.3   578  VAL578      0.1561
    133  C         35.2450   42.8370   76.2770 C.2   578  VAL578      0.2260
    134  O         35.9130   42.1770   77.0890 O.2   578  VAL578     -0.2867
    135  CB        35.8270   44.8770   77.7040 C.3   578  VAL578      0.0252
    136  CG1       35.9560   46.4120   77.6660 C.3   578  VAL578      0.0019
    137  CG2       35.0110   44.4590   78.9390 C.3   578  VAL578      0.0019
    138  N         35.8610   38.8590   74.7790 N.3   580  VAL580     -0.1245
    139  CA        36.8910   37.9780   74.2460 C.3   580  VAL580      0.1561
    140  C         36.2440   37.4120   72.9800 C.2   580  VAL580      0.2260
    141  O         35.3070   36.5980   73.0460 O.2   580  VAL580     -0.2867
    142  CB        37.2480   36.8520   75.2430 C.3   580  VAL580      0.0252
    143  CG1       38.4780   36.1070   74.7550 C.3   580  VAL580      0.0019
    144  CG2       37.4920   37.4460   76.6420 C.3   580  VAL580      0.0019
    145  N         47.4380   39.0210   79.8520 N.3   591  ILE591     -0.1245
    146  CA        47.1870   37.9600   80.8310 C.3   591  ILE591      0.1561
    147  C         46.2560   36.8670   80.2890 C.2   591  ILE591      0.2260
    148  O         45.8180   35.9770   81.0260 O.2   591  ILE591     -0.2867
    149  CB        46.6480   38.5710   82.1570 C.3   591  ILE591      0.0252
    150  CG1       46.7000   37.5640   83.3090 C.3   591  ILE591      0.0019
    151  CG2       45.2500   39.1340   81.9550 C.3   591  ILE591      0.0019
    152  CD1       48.0800   37.0280   83.6040 C.3   591  ILE591      0.0001
    153  N         46.1790   33.0360   81.1540 N.3   594  ALA594     -0.1231
    154  CA        45.5860   32.5140   82.3870 C.3   594  ALA594      0.1694
    155  C         44.1720   31.9660   82.2070 C.2   594  ALA594      0.2592
    156  O         43.7200   31.1480   83.0290 O.2   594  ALA594     -0.2718
    157  CB        45.6050   33.5810   83.4770 C.3   594  ALA594      0.0304
    158  N         43.5110   32.3220   81.1030 N.am  595  TRP595     -0.1976
    159  CA        42.1190   31.9130   80.8750 C.3   595  TRP595      0.1640
    160  C         41.9420   30.5320   80.2450 C.2   595  TRP595      0.2290
    161  O         40.8130   30.0360   80.1090 O.2   595  TRP595     -0.2864
    162  CB        41.3900   32.9420   79.9990 C.3   595  TRP595      0.0576
    163  CG        41.5760   34.3510   80.4340 C.ar  595  TRP595      0.0006
    164  CD1       41.8980   34.7980   81.6830 C.ar  595  TRP595      0.0946
    165  CD2       41.5400   35.5080   79.5870 C.ar  595  TRP595      0.0152
    166  NE1       42.0870   36.1680   81.6660 N.ar  595  TRP595     -0.2442
    167  CE2       41.8760   36.6240   80.3870 C.ar  595  TRP595      0.0810
    168  CE3       41.2780   35.7060   78.2230 C.ar  595  TRP595      0.0012
    169  CZ2       41.9490   37.9250   79.8650 C.ar  595  TRP595      0.0191
    170  CZ3       41.3480   36.9950   77.7060 C.ar  595  TRP595      0.0001
    171  CH2       41.6860   38.0850   78.5260 C.ar  595  TRP595      0.0015
    172  N         38.6870   28.0340   79.0170 N.3   599  TYR599     -0.1241
    173  CA        38.4690   27.8960   77.5810 C.3   599  TYR599      0.1605
    174  C         39.1910   26.7950   76.8070 C.2   599  TYR599      0.2264
    175  O         38.6750   26.2910   75.8040 O.2   599  TYR599     -0.2867
    176  CB        38.8500   29.2130   76.9040 C.3   599  TYR599      0.0534
    177  CG        38.1310   30.4420   77.4080 C.ar  599  TYR599     -0.0201
    178  CD1       36.7810   30.3970   77.7560 C.ar  599  TYR599     -0.0009
    179  CD2       38.7860   31.6760   77.4660 C.ar  599  TYR599     -0.0009
    180  CE1       36.0960   31.5650   78.1430 C.ar  599  TYR599      0.0417
    181  CE2       38.1240   32.8260   77.8460 C.ar  599  TYR599      0.0417
    182  CZ        36.7770   32.7740   78.1740 C.ar  599  TYR599      0.1957
    183  OH        36.1190   33.9540   78.4740 O.3   599  TYR599     -0.2866
    184  N         43.3500   44.0880   79.9320 N.3   643  ARG643     -0.1231
    185  CA        42.8560   42.8000   80.4490 C.3   643  ARG643      0.1694
    186  C         42.4140   42.0100   79.2080 C.2   643  ARG643      0.2591
    187  O         42.8710   40.8850   78.9910 O.2   643  ARG643     -0.2718
    188  CB        41.6830   42.9660   81.4190 C.3   643  ARG643      0.0321
    189  CG        41.2130   41.6570   82.0620 C.3   643  ARG643      0.0489
    190  CD        42.1670   41.1890   83.1280 C.3   643  ARG643      0.2205
    191  NE        42.3240   42.1750   84.1930 N.pl3 643  ARG643     -0.0865
    192  CZ        41.5180   42.3130   85.2360 C.cat 643  ARG643      0.5346
    193  NH1       40.4740   41.5050   85.3950 N.pl3 643  ARG643      0.1354
    194  NH2       41.7070   43.3260   86.0770 N.pl3 643  ARG643      0.1354
    195  N         41.4900   42.5760   78.4350 N.am  644  VAL644     -0.1980
    196  CA        41.0180   41.9600   77.1820 C.3   644  VAL644      0.1595
    197  C         41.4130   42.9430   76.0670 C.2   644  VAL644      0.2287
    198  O         40.7240   43.9340   75.8210 O.2   644  VAL644     -0.2864
    199  CB        39.4820   41.7340   77.1860 C.3   644  VAL644      0.0276
    200  CG1       39.0310   41.1470   75.8530 C.3   644  VAL644      0.0022
    201  CG2       39.0740   40.7890   78.3210 C.3   644  VAL644      0.0022
    202  N         39.6690   48.0570   81.0650 N.3   680  HIS680     -0.1226
    203  CA        38.6820   47.0130   81.2540 C.3   680  HIS680      0.1752
    204  C         37.4120   47.4450   81.9820 C.2   680  HIS680      0.2597
    205  O         36.3270   46.9500   81.6720 O.2   680  HIS680     -0.2718
    206  CB        39.3050   45.7900   81.9230 C.3   680  HIS680      0.0759
    207  CG        38.5640   44.5160   81.6460 C.ar  680  HIS680      0.0818
    208  ND1       38.2320   44.1050   80.3760 N.ar  680  HIS680     -0.2268
    209  CD2       38.0590   43.5820   82.4930 C.ar  680  HIS680      0.1154
    210  CE1       37.5460   42.9760   80.4470 C.ar  680  HIS680      0.1986
    211  NE2       37.4260   42.6400   81.7130 N.ar  680  HIS680     -0.2212
    212  N         37.5340   48.3780   82.9260 N.am  681  GLY681     -0.1942
    213  CA        36.3680   48.8600   83.6480 C.3   681  GLY681      0.2014
    214  C         36.6300   49.2840   85.0820 C.2   681  GLY681      0.2638
    215  O         36.0530   50.2690   85.5540 O.2   681  GLY681     -0.2714
    216  N         37.4720   48.5500   85.7950 N.am  682  ALA682     -0.1977
    217  CA        37.7720   48.9080   87.1780 C.3   682  ALA682      0.1597
    218  C         38.4310   50.2880   87.2480 C.2   682  ALA682      0.2287
    219  O         39.3700   50.5800   86.5030 O.2   682  ALA682     -0.2864
    220  CB        38.6800   47.8570   87.8090 C.3   682  ALA682      0.0319
@<TRIPOS>BOND
     1   140   141    2
     2   140   139    1
     3   139   138    1
     4   139   142    1
     5   143   142    1
     6   142   144    1
     7   175   174    2
     8   198   197    2
     9   200   199    1
    10   197   196    1
    11   131   132    1
    12   133   132    1
    13   133   134    2
    14   132   135    1
    15   174   173    1
    16   176   177    1
    17   176   173    1
    18   196   199    1
    19   196   195    1
    20   199   201    1
    21   177   179   ar
    22   177   178   ar
    23   121   120    2
    24   179   181   ar
    25   173   172    1
    26   136   135    1
    27   135   137    1
    28   170   168   ar
    29   170   171   ar
    30   178   180   ar
    31   181   182   ar
    32   180   182   ar
    33   126   125    2
    34   182   183    1
    35   168   165   ar
    36   195   186   am
    37   171   169   ar
    38   120   119    1
    39   120   123   am
    40   125   124    1
    41   118   119    1
    42   118   116   am
    43   119   122    1
    44   187   186    2
    45   186   185    1
    46   124   123    1
    47   124   127    1
    48   129   128    2
    49   165   167   ar
    50   165   163   ar
    51   115   114    1
    52   115   116    1
    53   116   117    2
    54   145   146    1
    55   169   167   ar
    56   184   185    1
    57   162   163    1
    58   162   159    1
    59   161   160    2
    60   160   159    1
    61   147   146    1
    62   147   148    2
    63   128   127    1
    64   128   130   am
    65   208   210   ar
    66   208   207   ar
    67   167   166   ar
    68   163   164   ar
    69   210   211   ar
    70   185   188    1
    71   146   149    1
    72   159   158    1
    73    86    85    2
    74   202   203    1
    75   158   155   am
    76   153   154    1
    77    71    72    1
    78   203   206    1
    79   203   204    1
    80   188   189    1
    81    72    73    1
    82    72    75    1
    83   207   206    1
    84   207   209   ar
    85   166   164   ar
    86   205   204    2
    87   211   209   ar
    88   105   104   ar
    89   105   103   ar
    90   104   102   ar
    91    73    74    2
    92   151   149    1
    93   204   212   am
    94   189   190    1
    95    85    84    1
    96   149   150    1
    97   155   154    1
    98   155   156    2
    99    77    79   ar
   100    77    76   ar
   101   154   157    1
   102    84    83    1
   103    84    87    1
   104    79    81   ar
   105    75    76    1
   106   212   213    1
   107   103   101   ar
   108    76    78   ar
   109   102   100   ar
   110   190   191    1
   111    89    91   ar
   112    89    88   ar
   113    91    93   ar
   114   150   152    1
   115   213   214    1
   116    81    82    1
   117    81    80   ar
   118    87    88    1
   119    88    90   ar
   120    93    94    1
   121    93    92   ar
   122    78    80   ar
   123   191   192    2
   124   101   100   ar
   125   100    99    1
   126    90    92   ar
   127    29    28   ar
   128    29    27   ar
   129    28    26   ar
   130    95    96    1
   131   214   215    2
   132   214   216   am
   133    70    69    1
   134   192   193    1
   135   192   194    1
   136    62    61    1
   137    62    63    1
   138    69    66    1
   139    99    96    1
   140   216   217    1
   141    65    63   am
   142    65    66    1
   143    27    25   ar
   144    96    97    1
   145    26    24   ar
   146    63    64    2
   147   219   218    2
   148    11     9    1
   149    66    67    1
   150   217   218    1
   151   217   220    1
   152    25    24   ar
   153    48    49    1
   154    48    47    1
   155    24    23    1
   156    67    68    2
   157    97    98    2
   158     9    10    1
   159     9     8    2
   160    12    13    1
   161    47    46    1
   162   111   110    1
   163   111   113    1
   164   110   112    1
   165   110   107    1
   166     8     7    1
   167   109   108    2
   168    23    20    1
   169   106   107    1
   170    19    20    1
   171    13    14    1
   172    13    16    1
   173    15    14    2
   174    53    52    2
   175   107   108    1
   176    42    43    1
   177    52    51    1
   178    46    43    1
   179     7     6    1
   180    20    21    1
   181    18    16    1
   182    43    44    1
   183    16    17    1
   184     6     5    1
   185    21    22    2
   186    21    30   am
   187    51    54    1
   188    51    50    1
   189    54    55    1
   190     5     2    1
   191    44    45    2
   192    30    31    1
   193    56    55    1
   194    56    57    1
   195     2     1    1
   196     2     3    1
   197    31    34    1
   198    31    32    1
   199    34    35    1
   200    59    58    1
   201     4     3    2
   202    57    58    2
   203    58    60    1
   204    32    33    2
   205    32    36   am
   206    36    37    1
   207    41    40    1
   208    37    40    1
   209    37    38    1
   210    39    38    2
