@<TRIPOS>MOLECULE
tmp/1e8wA00.pdb
 166 156 0 0 0
SMALL
GASTEIGER

@<TRIPOS>ATOM
      1  N         18.8740   64.7570   12.6610 N.3   573  MET573     -0.1245
      2  CA        19.1540   65.7360   13.6780 C.3   573  MET573      0.1570
      3  C         19.8570   67.0170   13.1950 C.2   573  MET573      0.2261
      4  O         20.6800   67.0070   12.2910 O.2   573  MET573     -0.2867
      5  CB        19.8900   65.0700   14.8300 C.3   573  MET573      0.0387
      6  CG        18.9390   64.3930   15.8540 C.3   573  MET573      0.0595
      7  SD        19.7680   63.1810   16.8460 S.3   573  MET573     -0.1393
      8  CE        19.4440   61.9200   15.9260 C.3   573  MET573      0.0692
      9  N         17.6790   60.0110   13.1700 N.3   581  TRP581     -0.1241
     10  CA        16.8620   59.7520   14.3420 C.3   581  TRP581      0.1605
     11  C         15.7830   58.8030   13.7640 C.2   581  TRP581      0.2264
     12  O         14.9890   59.2250   12.9510 O.2   581  TRP581     -0.2867
     13  CB        16.2630   61.0560   14.8450 C.3   581  TRP581      0.0550
     14  CG        15.1760   60.9360   15.8700 C.ar  581  TRP581      0.0003
     15  CD1       13.8990   60.5000   15.6810 C.ar  581  TRP581      0.0946
     16  CD2       15.2660   61.2900   17.2420 C.ar  581  TRP581      0.0152
     17  NE1       13.1800   60.5870   16.8490 N.ar  581  TRP581     -0.2442
     18  CE2       14.0210   61.0690   17.8200 C.ar  581  TRP581      0.0810
     19  CE3       16.2970   61.7680   18.0400 C.ar  581  TRP581      0.0012
     20  CZ2       13.7840   61.3190   19.1480 C.ar  581  TRP581      0.0191
     21  CZ3       16.0620   62.0110   19.3330 C.ar  581  TRP581      0.0001
     22  CH2       14.8240   61.7930   19.8840 C.ar  581  TRP581      0.0015
     23  N         19.3800   55.8930   17.0220 N.3   600  ILE600     -0.1245
     24  CA        20.1070   56.8890   16.2580 C.3   600  ILE600      0.1561
     25  C         21.3710   56.2510   15.6720 C.2   600  ILE600      0.2260
     26  O         22.1250   55.6370   16.4050 O.2   600  ILE600     -0.2867
     27  CB        20.5880   58.0180   17.1460 C.3   600  ILE600      0.0252
     28  CG1       19.4500   58.9000   17.5990 C.3   600  ILE600      0.0019
     29  CG2       21.5900   58.8340   16.4160 C.3   600  ILE600      0.0019
     30  CD1       19.9380   60.0540   18.4450 C.3   600  ILE600      0.0001
     31  N         24.8350   57.1780   13.5800 N.3   602  LYS602     -0.1245
     32  CA        25.6370   58.3460   13.3190 C.3   602  LYS602      0.1561
     33  C         27.0010   58.0240   12.6920 C.2   602  LYS602      0.2260
     34  O         27.4710   56.8750   12.8120 O.2   602  LYS602     -0.2867
     35  CB        25.7900   59.1150   14.6270 C.3   602  LYS602      0.0271
     36  CG        26.6840   60.3340   14.6290 C.3   602  LYS602      0.0035
     37  CD        26.7590   60.9830   16.0320 C.3   602  LYS602      0.0206
     38  CE        27.2670   60.0280   17.0900 C.3   602  LYS602      0.1093
     39  NZ        28.0040   60.6920   18.2250 N.3   602  LYS602     -0.1314
     40  N         32.4270   55.6580   18.2830 N.3   607  LEU607     -0.1245
     41  CA        31.5660   55.0880   19.3110 C.3   607  LEU607      0.1561
     42  C         32.2230   53.9410   20.1050 C.2   607  LEU607      0.2260
     43  O         31.6280   53.4150   21.0060 O.2   607  LEU607     -0.2867
     44  CB        30.2230   54.6380   18.6860 C.3   607  LEU607      0.0270
     45  CG        29.5390   55.8680   18.0340 C.3   607  LEU607      0.0019
     46  CD1       28.3970   55.4430   17.1550 C.3   607  LEU607      0.0001
     47  CD2       29.0240   56.8410   19.1080 C.3   607  LEU607      0.0001
     48  N         32.6740   55.5060   23.3290 N.3   610  ASP610     -0.1239
     49  CA        31.4470   55.6110   24.0790 C.3   610  ASP610      0.1674
     50  C         31.0940   54.2850   24.7150 C.2   610  ASP610      0.2266
     51  O         30.5820   54.2550   25.8030 O.2   610  ASP610     -0.2867
     52  CB        30.3130   56.0480   23.1090 C.3   610  ASP610      0.1410
     53  CG        30.1810   57.5620   22.9640 C.2   610  ASP610      0.3668
     54  OD1       31.1670   58.2670   22.5860 O.co2 610  ASP610     -0.2456
     55  OD2       29.0360   58.0390   23.2230 O.co2 610  ASP610     -0.2456
     56  N         22.9000   54.8220   28.4890 N.3   636  TYR636     -0.1241
     57  CA        22.0860   54.3890   27.3520 C.3   636  TYR636      0.1605
     58  C         22.8230   53.3340   26.4610 C.2   636  TYR636      0.2264
     59  O         24.0320   53.2190   26.5080 O.2   636  TYR636     -0.2867
     60  CB        21.7190   55.6050   26.5340 C.3   636  TYR636      0.0534
     61  CG        22.9490   56.3990   26.1620 C.ar  636  TYR636     -0.0201
     62  CD1       23.6360   56.1570   25.0310 C.ar  636  TYR636     -0.0009
     63  CD2       23.4290   57.3710   27.0280 C.ar  636  TYR636     -0.0009
     64  CE1       24.7620   56.8560   24.7820 C.ar  636  TYR636      0.0417
     65  CE2       24.5690   58.0960   26.7890 C.ar  636  TYR636      0.0417
     66  CZ        25.2350   57.8580   25.6840 C.ar  636  TYR636      0.1957
     67  OH        26.3540   58.6160   25.4170 O.3   636  TYR636     -0.2866
     68  N         22.9170   54.2650   18.4710 N.3   648  ILE648     -0.1231
     69  CA        22.7340   54.8060   19.7880 C.3   648  ILE648      0.1692
     70  C         21.2960   54.7610   20.2360 C.2   648  ILE648      0.2592
     71  O         20.3730   55.0940   19.4740 O.2   648  ILE648     -0.2718
     72  CB        23.1290   56.2640   19.8030 C.3   648  ILE648      0.0266
     73  CG1       24.5890   56.4290   19.4630 C.3   648  ILE648      0.0019
     74  CG2       22.7110   56.8640   21.0860 C.3   648  ILE648      0.0020
     75  CD1       25.0480   57.8630   19.5150 C.3   648  ILE648      0.0001
     76  N         21.0920   54.3820   21.4870 N.am  649  GLU649     -0.1966
     77  CA        19.7480   54.3420   22.0340 C.3   649  GLU649      0.1733
     78  C         19.1680   55.7360   22.1360 C.2   649  GLU649      0.2616
     79  O         19.9030   56.6780   22.4750 O.2   649  GLU649     -0.2715
     80  CB        19.7580   53.8290   23.4710 C.3   649  GLU649      0.0429
     81  CG        18.3920   53.5130   24.0900 C.3   649  GLU649      0.1163
     82  CD        18.5320   52.9570   25.4900 C.2   649  GLU649      0.3649
     83  OE1       17.5370   52.6460   26.1570 O.co2 649  GLU649     -0.2457
     84  OE2       19.6790   52.8190   26.0050 O.co2 649  GLU649     -0.2457
     85  N         17.8680   55.8790   21.8820 N.am  650  ILE650     -0.1963
     86  CA        17.2420   57.1410   22.0620 C.3   650  ILE650      0.1727
     87  C         16.5640   57.1040   23.4050 C.2   650  ILE650      0.2616
     88  O         15.6240   56.3670   23.6030 O.2   650  ILE650     -0.2715
     89  CB        16.1240   57.4160   21.0240 C.3   650  ILE650      0.0290
     90  CG1       16.7130   57.8700   19.6840 C.3   650  ILE650      0.0022
     91  CG2       15.3070   58.6040   21.4760 C.3   650  ILE650      0.0023
     92  CD1       15.6940   58.0520   18.6500 C.3   650  ILE650      0.0001
     93  N         16.9890   57.8970   24.3740 N.am  651  VAL651     -0.1977
     94  CA        16.2920   57.8800   25.6780 C.3   651  VAL651      0.1596
     95  C         15.0870   58.7020   25.5340 C.2   651  VAL651      0.2287
     96  O         15.1620   59.8930   25.2250 O.2   651  VAL651     -0.2864
     97  CB        17.0660   58.5120   26.7460 C.3   651  VAL651      0.0276
     98  CG1       16.2160   58.7190   28.0550 C.3   651  VAL651      0.0022
     99  CG2       18.2580   57.7530   26.9400 C.3   651  VAL651      0.0022
    100  N         13.4190   63.1810   26.7480 N.3   654  ALA654     -0.1231
    101  CA        14.6760   63.8090   27.1650 C.3   654  ALA654      0.1694
    102  C         15.1860   64.8950   26.2450 C.2   654  ALA654      0.2593
    103  O         14.9440   64.8740   25.0420 O.2   654  ALA654     -0.2718
    104  CB        15.7080   62.7320   27.2970 C.3   654  ALA654      0.0304
    105  N         15.9150   65.8510   26.8130 N.am  655  THR655     -0.1939
    106  CA        16.4420   66.9440   25.9800 C.3   655  THR655      0.2028
    107  C         17.7550   67.4110   26.5060 C.2   655  THR655      0.2642
    108  O         18.1490   67.1110   27.6280 O.2   655  THR655     -0.2714
    109  CB        15.5600   68.2330   25.9750 C.3   655  THR655      0.1808
    110  OG1       14.1920   67.8680   26.0730 O.3   655  THR655     -0.2208
    111  CG2       15.6890   68.9930   24.6820 C.3   655  THR655      0.0379
    112  N         18.3850   68.2010   25.6590 N.am  656  THR656     -0.1950
    113  CA        19.6690   68.8070   25.9010 C.3   656  THR656      0.1897
    114  C         19.5110   70.0310   26.8070 C.2   656  THR656      0.2313
    115  O         18.5870   70.8370   26.6400 O.2   656  THR656     -0.2863
    116  CB        20.2050   69.2180   24.5590 C.3   656  THR656      0.1794
    117  OG1       20.9440   68.0960   24.0170 O.3   656  THR656     -0.2208
    118  CG2       21.0410   70.4790   24.6660 C.3   656  THR656      0.0378
    119  N         19.6490   73.2640   24.9210 N.3   659  LYS659     -0.1245
    120  CA        18.3900   73.4550   24.1970 C.3   659  LYS659      0.1561
    121  C         17.3710   74.0810   25.1170 C.2   659  LYS659      0.2260
    122  O         16.5320   74.8690   24.6790 O.2   659  LYS659     -0.2867
    123  CB        17.8080   72.1170   23.6980 C.3   659  LYS659      0.0271
    124  CG        17.9280   71.8410   22.1430 C.3   659  LYS659      0.0035
    125  CD        17.5990   70.3950   21.7210 C.3   659  LYS659      0.0206
    126  CE        18.3230   70.0200   20.4390 C.3   659  LYS659      0.1093
    127  NZ        17.4880   69.9470   19.1490 N.3   659  LYS659     -0.1314
    128  N         22.1870   65.8690   29.2120 N.3   722  MET722     -0.1245
    129  CA        20.7950   65.6890   28.9690 C.3   722  MET722      0.1570
    130  C         19.9620   65.4980   30.2070 C.2   722  MET722      0.2261
    131  O         20.5140   65.2300   31.2820 O.2   722  MET722     -0.2867
    132  CB        20.6340   64.5040   28.0280 C.3   722  MET722      0.0387
    133  CG        21.0860   64.7750   26.6000 C.3   722  MET722      0.0595
    134  SD        20.1330   63.7500   25.3800 S.3   722  MET722     -0.1393
    135  CE        18.6850   64.7590   25.0010 C.3   722  MET722      0.0692
    136  N         21.7480   62.9700   32.5280 N.3   730  PHE730     -0.1241
    137  CA        22.6980   61.9580   32.0980 C.3   730  PHE730      0.1605
    138  C         23.6420   62.4610   31.0350 C.2   730  PHE730      0.2264
    139  O         23.1530   63.0500   30.0980 O.2   730  PHE730     -0.2867
    140  CB        21.9280   60.6860   31.6000 C.3   730  PHE730      0.0534
    141  CG        21.0070   60.9130   30.3760 C.ar  730  PHE730     -0.0203
    142  CD1       21.4410   60.6320   29.1130 C.ar  730  PHE730     -0.0042
    143  CD2       19.6990   61.3340   30.5360 C.ar  730  PHE730     -0.0042
    144  CE1       20.5560   60.7600   28.0100 C.ar  730  PHE730     -0.0003
    145  CE2       18.8070   61.4660   29.4210 C.ar  730  PHE730     -0.0003
    146  CZ        19.2300   61.1720   28.1670 C.ar  730  PHE730     -0.0000
    147  N         26.3630   62.4500   27.6220 N.3   732  ILE732     -0.1231
    148  CA        26.2680   61.7860   26.2610 C.3   732  ILE732      0.1692
    149  C         27.4960   62.0610   25.4080 C.2   732  ILE732      0.2592
    150  O         28.5260   62.4420   25.9290 O.2   732  ILE732     -0.2718
    151  CB        25.0490   62.2030   25.4510 C.3   732  ILE732      0.0266
    152  CG1       25.1110   63.7170   25.1380 C.3   732  ILE732      0.0019
    153  CG2       23.7960   61.9260   26.1610 C.3   732  ILE732      0.0020
    154  CD1       24.1250   64.0980   24.0010 C.3   732  ILE732      0.0001
    155  N         27.4570   61.7870   24.1250 N.am  733  ASP733     -0.1974
    156  CA        28.5810   62.0980   23.2400 C.3   733  ASP733      0.1709
    157  C         29.9070   61.9230   23.8840 C.2   733  ASP733      0.2293
    158  O         30.6120   62.9120   24.0810 O.2   733  ASP733     -0.2864
    159  CB        28.5390   63.5840   22.8640 C.3   733  ASP733      0.1436
    160  CG        27.8640   63.8540   21.5440 C.2   733  ASP733      0.3671
    161  OD1       28.3320   63.2420   20.5600 O.co2 733  ASP733     -0.2456
    162  OD2       26.9070   64.6740   21.4800 O.co2 733  ASP733     -0.2456
    163  N         32.3080   60.5850   22.6040 N.3   735  GLY735     -0.1225
    164  CA        33.2370   60.4350   21.4900 C.3   735  GLY735      0.1811
    165  C         34.6100   60.9450   21.8410 C.2   735  GLY735      0.2280
    166  O         35.6210   60.2880   21.5540 O.2   735  GLY735     -0.2866
@<TRIPOS>BOND
     1     4     3    2
     2     1     2    1
     3    33    34    2
     4    33    32    1
     5    12    11    2
     6     9    10    1
     7     3     2    1
     8    32    31    1
     9    32    35    1
    10     2     5    1
    11    11    10    1
    12    10    13    1
    13    35    36    1
    14    36    37    1
    15     5     6    1
    16    13    14    1
    17    25    24    1
    18    25    26    2
    19    15    14   ar
    20    15    17   ar
    21     6     7    1
    22    14    16   ar
    23     8     7    1
    24    37    38    1
    25    24    23    1
    26    24    27    1
    27    29    27    1
    28    17    18   ar
    29    38    39    1
    30    27    28    1
    31    46    45    1
    32    16    18   ar
    33    16    19   ar
    34    28    30    1
    35    18    20   ar
    36    45    44    1
    37    45    47    1
    38    19    21   ar
    39    40    41    1
    40    68    69    1
    41    92    90    1
    42    44    41    1
    43    20    22   ar
    44   127   126    1
    45    41    42    1
    46    21    22   ar
    47    73    75    1
    48    73    72    1
    49    71    70    2
    50    90    89    1
    51    69    72    1
    52    69    70    1
    53    72    74    1
    54    42    43    2
    55    70    76   am
    56   126   125    1
    57   161   160   ar
    58    89    91    1
    59    89    86    1
    60   162   160   ar
    61    76    77    1
    62   164   165    1
    63   164   163    1
    64   160   159    1
    65   166   165    2
    66   125   124    1
    67    85    86    1
    68    85    78   am
    69    77    78    1
    70    77    80    1
    71    86    87    1
    72    78    79    2
    73   124   123    1
    74    54    53   ar
    75   159   156    1
    76    53    52    1
    77    53    55   ar
    78    52    49    1
    79   156   157    1
    80   156   155    1
    81    48    49    1
    82    87    88    2
    83    87    93   am
    84    80    81    1
    85   123   120    1
    86   157   158    2
    87   154   152    1
    88   117   116    1
    89    49    50    1
    90    81    82    1
    91   155   149   am
    92   120   119    1
    93   120   121    1
    94    93    94    1
    95   116   118    1
    96   116   113    1
    97   122   121    2
    98   111   109    1
    99    50    51    2
   100    64    62   ar
   101    64    66   ar
   102   135   134    1
   103    62    61   ar
   104   103   102    2
   105   152   151    1
   106    96    95    2
   107   134   133    1
   108   149   150    2
   109   149   148    1
   110    67    66    1
   111   151   153    1
   112   151   148    1
   113    82    84   ar
   114    82    83   ar
   115    95    94    1
   116   112   113    1
   117   112   107   am
   118    94    97    1
   119    66    65   ar
   120   113   114    1
   121   109   106    1
   122   109   110    1
   123   106   107    1
   124   106   105    1
   125    61    60    1
   126    61    63   ar
   127   102   105   am
   128   102   101    1
   129   148   147    1
   130    58    59    2
   131    58    57    1
   132   107   108    2
   133    60    57    1
   134   133   132    1
   135   115   114    2
   136    97    99    1
   137    97    98    1
   138   100   101    1
   139    65    63   ar
   140   101   104    1
   141    57    56    1
   142   144   146   ar
   143   144   142   ar
   144   132   129    1
   145   146   145   ar
   146   129   128    1
   147   129   130    1
   148   142   141   ar
   149   145   143   ar
   150   139   138    2
   151   130   131    2
   152   141   143   ar
   153   141   140    1
   154   138   137    1
   155   140   137    1
   156   137   136    1
