@<TRIPOS>MOLECULE
tmp/1e8xA00.pdb
 194 183 0 0 0
SMALL
GASTEIGER

@<TRIPOS>ATOM
      1  N         18.6240   65.3510   12.2190 N.3   568  MET568     -0.1245
      2  CA        18.8270   66.3610   13.2420 C.3   568  MET568      0.1570
      3  C         19.7220   67.5160   12.8290 C.2   568  MET568      0.2261
      4  O         20.6140   67.3750   11.9900 O.2   568  MET568     -0.2867
      5  CB        19.3990   65.7030   14.4960 C.3   568  MET568      0.0387
      6  CG        18.4530   64.6640   15.1000 C.3   568  MET568      0.0595
      7  SD        19.0440   63.8500   16.5680 S.3   568  MET568     -0.1393
      8  CE        19.7800   62.4390   15.8660 C.3   568  MET568      0.0692
      9  N         22.3260   68.7750   13.6620 N.3   570  SER570     -0.1202
     10  CA        23.6050   68.5630   14.3380 C.3   570  SER570      0.2020
     11  C         24.7330   68.5020   13.3050 C.2   570  SER570      0.2619
     12  O         24.5020   68.1670   12.1370 O.2   570  SER570     -0.2717
     13  CB        23.5520   67.2640   15.1480 C.3   570  SER570      0.2103
     14  OG        24.8570   66.8860   15.5400 O.3   570  SER570     -0.2182
     15  N         25.9420   68.8440   13.7500 N.am  571  LYS571     -0.1965
     16  CA        27.1220   68.8510   12.8940 C.3   571  LYS571      0.1728
     17  C         27.1410   67.5970   12.0450 C.2   571  LYS571      0.2616
     18  O         27.2780   67.6430   10.8010 O.2   571  LYS571     -0.2715
     19  CB        28.4280   68.8790   13.7160 C.3   571  LYS571      0.0311
     20  CG        28.7180   70.1590   14.5700 C.3   571  LYS571      0.0038
     21  CD        27.8720   70.2730   15.8620 C.3   571  LYS571      0.0206
     22  CE        26.5380   70.9800   15.6190 C.3   571  LYS571      0.1093
     23  NZ        25.6720   70.9890   16.8390 N.3   571  LYS571     -0.1314
     24  N         26.9850   66.4660   12.7160 N.am  572  LYS572     -0.1977
     25  CA        27.0400   65.2090   12.0060 C.3   572  LYS572      0.1596
     26  C         25.7840   64.8480   11.2440 C.2   572  LYS572      0.2287
     27  O         25.7630   63.8140   10.6050 O.2   572  LYS572     -0.2864
     28  CB        27.3890   64.0680   12.9740 C.3   572  LYS572      0.0298
     29  CG        28.5010   64.3790   13.9640 C.3   572  LYS572      0.0038
     30  CD        29.8640   64.4480   13.3120 C.3   572  LYS572      0.0206
     31  CE        30.9380   64.6030   14.3520 C.3   572  LYS572      0.1093
     32  NZ        32.2290   64.1410   13.7810 N.3   572  LYS572     -0.1314
     33  N         22.9490   63.5800   12.1980 N.3   574  PRO574     -0.2116
     34  CA        22.5000   62.2330   12.5800 C.3   574  PRO574      0.1372
     35  C         21.0910   61.9510   12.1320 C.2   574  PRO574      0.2244
     36  O         20.2850   62.8570   12.0120 O.2   574  PRO574     -0.2868
     37  CB        22.5310   62.2640   14.1090 C.3   574  PRO574      0.0268
     38  CG        23.3520   63.3820   14.4420 C.3   574  PRO574      0.0207
     39  CD        23.1500   64.4120   13.3960 C.3   574  PRO574      0.0892
     40  N         17.4340   60.4280   13.0150 N.3   576  TRP576     -0.1241
     41  CA        16.5960   60.2050   14.1890 C.3   576  TRP576      0.1605
     42  C         15.5350   59.2770   13.6540 C.2   576  TRP576      0.2264
     43  O         14.7210   59.7170   12.8620 O.2   576  TRP576     -0.2867
     44  CB        15.9720   61.5210   14.6540 C.3   576  TRP576      0.0550
     45  CG        14.9020   61.3940   15.7330 C.ar  576  TRP576      0.0003
     46  CD1       13.6740   60.8290   15.5980 C.ar  576  TRP576      0.0946
     47  CD2       14.9710   61.8910   17.0800 C.ar  576  TRP576      0.0152
     48  NE1       12.9660   60.9460   16.7710 N.ar  576  TRP576     -0.2442
     49  CE2       13.7410   61.5950   17.6980 C.ar  576  TRP576      0.0810
     50  CE3       15.9660   62.5410   17.8220 C.ar  576  TRP576      0.0012
     51  CZ2       13.4530   61.9500   19.0370 C.ar  576  TRP576      0.0191
     52  CZ3       15.7070   62.8920   19.1420 C.ar  576  TRP576      0.0001
     53  CH2       14.4450   62.5960   19.7410 C.ar  576  TRP576      0.0015
     54  N         19.0790   56.7070   17.1430 N.3   595  ILE595     -0.1245
     55  CA        19.8230   57.6420   16.3430 C.3   595  ILE595      0.1561
     56  C         20.9700   56.9090   15.6490 C.2   595  ILE595      0.2260
     57  O         21.6880   56.1110   16.2650 O.2   595  ILE595     -0.2867
     58  CB        20.3970   58.7320   17.2140 C.3   595  ILE595      0.0252
     59  CG1       19.2870   59.6720   17.6960 C.3   595  ILE595      0.0019
     60  CG2       21.4560   59.4890   16.4620 C.3   595  ILE595      0.0019
     61  CD1       19.7910   60.8490   18.5400 C.3   595  ILE595      0.0001
     62  N         24.4710   57.5440   13.6470 N.3   597  LYS597     -0.1245
     63  CA        25.3690   58.6520   13.3590 C.3   597  LYS597      0.1561
     64  C         26.7040   58.3480   12.7230 C.2   597  LYS597      0.2260
     65  O         27.3460   57.3520   13.0550 O.2   597  LYS597     -0.2867
     66  CB        25.5580   59.4420   14.6460 C.3   597  LYS597      0.0271
     67  CG        26.6050   60.5280   14.5680 C.3   597  LYS597      0.0035
     68  CD        26.5980   61.4170   15.8270 C.3   597  LYS597      0.0206
     69  CE        26.6970   60.5970   17.1370 C.3   597  LYS597      0.1093
     70  NZ        27.4500   61.2820   18.2920 N.3   597  LYS597     -0.1314
     71  N         31.3300   60.3780   14.6450 N.3   600  ASP600     -0.1239
     72  CA        31.9440   60.2660   15.9600 C.3   600  ASP600      0.1674
     73  C         32.3850   58.8420   16.2120 C.2   600  ASP600      0.2266
     74  O         31.7530   57.8990   15.7660 O.2   600  ASP600     -0.2867
     75  CB        30.9720   60.7060   17.0390 C.3   600  ASP600      0.1410
     76  CG        30.9140   62.2210   17.2090 C.2   600  ASP600      0.3668
     77  OD1       31.9540   62.8760   17.4420 O.co2 600  ASP600     -0.2456
     78  OD2       29.8050   62.7690   17.1340 O.co2 600  ASP600     -0.2456
     79  N         22.4810   55.0280   28.5830 N.3   631  TYR631     -0.1241
     80  CA        21.7170   54.5870   27.4360 C.3   631  TYR631      0.1605
     81  C         22.5480   53.6940   26.4910 C.2   631  TYR631      0.2264
     82  O         23.7740   53.7030   26.4670 O.2   631  TYR631     -0.2867
     83  CB        21.1820   55.8260   26.6840 C.3   631  TYR631      0.0534
     84  CG        22.3430   56.7160   26.2740 C.ar  631  TYR631     -0.0201
     85  CD1       23.0200   56.5060   25.0870 C.ar  631  TYR631     -0.0009
     86  CD2       22.7620   57.7790   27.1000 C.ar  631  TYR631     -0.0009
     87  CE1       24.0800   57.3230   24.7330 C.ar  631  TYR631      0.0417
     88  CE2       23.8210   58.6120   26.7410 C.ar  631  TYR631      0.0417
     89  CZ        24.4800   58.3670   25.5580 C.ar  631  TYR631      0.1957
     90  OH        25.5920   59.1270   25.2640 O.3   631  TYR631     -0.2866
     91  N         22.6640   54.8900   18.5750 N.3   643  ILE643     -0.1231
     92  CA        22.4430   55.4090   19.9000 C.3   643  ILE643      0.1692
     93  C         20.9930   55.3110   20.3240 C.2   643  ILE643      0.2592
     94  O         20.0610   55.6710   19.5830 O.2   643  ILE643     -0.2718
     95  CB        22.8950   56.8500   19.9450 C.3   643  ILE643      0.0266
     96  CG1       24.3910   56.9110   19.6410 C.3   643  ILE643      0.0019
     97  CG2       22.5720   57.4640   21.2550 C.3   643  ILE643      0.0020
     98  CD1       24.9900   58.3110   19.8270 C.3   643  ILE643      0.0001
     99  N         20.7920   54.7920   21.5260 N.am  644  GLU644     -0.1966
    100  CA        19.4420   54.6420   22.0440 C.3   644  GLU644      0.1733
    101  C         18.9180   56.0390   22.3450 C.2   644  GLU644      0.2616
    102  O         19.6220   56.8410   22.9420 O.2   644  GLU644     -0.2715
    103  CB        19.4210   53.8480   23.3490 C.3   644  GLU644      0.0429
    104  CG        18.0580   53.8920   23.9940 C.3   644  GLU644      0.1163
    105  CD        17.9410   53.1950   25.3580 C.2   644  GLU644      0.3649
    106  OE1       18.9230   52.9830   26.0930 O.co2 644  GLU644     -0.2457
    107  OE2       16.8190   52.8600   25.7120 O.co2 644  GLU644     -0.2457
    108  N         17.6820   56.3190   21.9100 N.am  645  ILE645     -0.1963
    109  CA        17.0600   57.5950   22.1940 C.3   645  ILE645      0.1727
    110  C         16.3340   57.5540   23.5600 C.2   645  ILE645      0.2616
    111  O         15.3750   56.8080   23.7110 O.2   645  ILE645     -0.2715
    112  CB        16.0160   57.9670   21.1270 C.3   645  ILE645      0.0290
    113  CG1       16.7130   58.2940   19.7790 C.3   645  ILE645      0.0022
    114  CG2       15.2160   59.1700   21.5730 C.3   645  ILE645      0.0023
    115  CD1       15.7560   58.6940   18.6620 C.3   645  ILE645      0.0001
    116  N         16.8310   58.3160   24.5430 N.am  646  VAL646     -0.1977
    117  CA        16.1670   58.4610   25.8370 C.3   646  VAL646      0.1596
    118  C         14.9160   59.3210   25.6060 C.2   646  VAL646      0.2287
    119  O         15.0210   60.4770   25.2510 O.2   646  VAL646     -0.2864
    120  CB        17.0300   59.1990   26.8430 C.3   646  VAL646      0.0276
    121  CG1       16.2290   59.4630   28.1020 C.3   646  VAL646      0.0022
    122  CG2       18.2490   58.3580   27.1870 C.3   646  VAL646      0.0022
    123  N         13.2710   63.8990   26.5660 N.3   649  ALA649     -0.1245
    124  CA        14.4130   64.4790   27.2290 C.3   649  ALA649      0.1562
    125  C         14.8580   65.5830   26.3150 C.2   649  ALA649      0.2260
    126  O         14.6080   65.5260   25.1170 O.2   649  ALA649     -0.2867
    127  CB        15.5030   63.4210   27.3480 C.3   649  ALA649      0.0290
    128  N         18.0480   68.8560   25.7630 N.3   651  THR651     -0.1218
    129  CA        19.3640   69.3720   26.1140 C.3   651  THR651      0.1862
    130  C         19.1700   70.4830   27.1620 C.2   651  THR651      0.2287
    131  O         18.1320   71.1600   27.1670 O.2   651  THR651     -0.2866
    132  CB        20.0410   70.0060   24.8760 C.3   651  THR651      0.1770
    133  OG1       20.2620   69.0190   23.8510 O.3   651  THR651     -0.2211
    134  CG2       21.3570   70.5360   25.2410 C.3   651  THR651      0.0375
    135  N         19.3430   73.6860   25.0870 N.3   654  LYS654     -0.1245
    136  CA        18.1280   74.0650   24.3980 C.3   654  LYS654      0.1561
    137  C         17.1270   74.7310   25.3350 C.2   654  LYS654      0.2260
    138  O         16.3870   75.6280   24.9260 O.2   654  LYS654     -0.2867
    139  CB        17.4740   72.8710   23.7100 C.3   654  LYS654      0.0271
    140  CG        17.9890   72.7080   22.2750 C.3   654  LYS654      0.0035
    141  CD        17.3030   71.5970   21.4630 C.3   654  LYS654      0.0206
    142  CE        17.9670   70.1820   21.6730 C.3   654  LYS654      0.1093
    143  NZ        17.3450   69.2930   22.7700 N.3   654  LYS654     -0.1314
    144  N         25.2740   71.8140   25.8110 N.3   714  ASP714     -0.1225
    145  CA        24.5830   71.1400   24.7170 C.3   714  ASP714      0.1805
    146  C         24.7200   69.6160   24.7580 C.2   714  ASP714      0.2597
    147  O         23.9600   68.8990   24.1260 O.2   714  ASP714     -0.2718
    148  CB        25.1200   71.7000   23.3910 C.3   714  ASP714      0.1424
    149  CG        24.1570   71.5240   22.2750 C.2   714  ASP714      0.3668
    150  OD1       22.9470   71.6930   22.5430 O.co2 714  ASP714     -0.2456
    151  OD2       24.5750   71.2320   21.1290 O.co2 714  ASP714     -0.2456
    152  N         25.7100   69.1540   25.5110 N.am  715  ASN715     -0.1974
    153  CA        26.0010   67.7410   25.6750 C.3   715  ASN715      0.1688
    154  C         25.4810   67.2030   26.9930 C.2   715  ASN715      0.2292
    155  O         25.9380   66.1810   27.5120 O.2   715  ASN715     -0.2864
    156  CB        27.5010   67.4880   25.5480 C.3   715  ASN715      0.1181
    157  CG        27.9340   67.4920   24.1210 C.2   715  ASN715      0.2629
    158  OD1       29.0470   67.8690   23.7740 O.2   715  ASN715     -0.2716
    159  ND2       27.0460   67.0550   23.2700 N.am  715  ASN715     -0.0877
    160  N         21.7480   66.5360   28.9920 N.3   717  MET717     -0.1245
    161  CA        20.3060   66.4320   28.7970 C.3   717  MET717      0.1570
    162  C         19.5320   66.2010   30.0810 C.2   717  MET717      0.2261
    163  O         20.0900   65.7920   31.0900 O.2   717  MET717     -0.2867
    164  CB        19.9900   65.2600   27.8630 C.3   717  MET717      0.0387
    165  CG        20.5980   65.3580   26.4450 C.3   717  MET717      0.0595
    166  SD        19.6900   64.2080   25.3740 S.3   717  MET717     -0.1393
    167  CE        18.2370   65.1520   24.8980 C.3   717  MET717      0.0692
    168  N         21.4940   63.5200   32.6560 N.3   725  PHE725     -0.1241
    169  CA        22.4480   62.5380   32.1680 C.3   725  PHE725      0.1605
    170  C         23.3000   63.1720   31.0930 C.2   725  PHE725      0.2264
    171  O         22.8090   64.0460   30.3830 O.2   725  PHE725     -0.2867
    172  CB        21.7110   61.2670   31.6590 C.3   725  PHE725      0.0534
    173  CG        20.7920   61.4920   30.4640 C.ar  725  PHE725     -0.0203
    174  CD1       19.4890   61.9810   30.6410 C.ar  725  PHE725     -0.0042
    175  CD2       21.2180   61.1840   29.1660 C.ar  725  PHE725     -0.0042
    176  CE1       18.6260   62.1580   29.5400 C.ar  725  PHE725     -0.0003
    177  CE2       20.3600   61.3570   28.0620 C.ar  725  PHE725     -0.0003
    178  CZ        19.0570   61.8470   28.2420 C.ar  725  PHE725     -0.0000
    179  N         25.7730   63.1430   27.5620 N.3   727  ILE727     -0.1231
    180  CA        25.7360   62.4390   26.3000 C.3   727  ILE727      0.1692
    181  C         26.8460   62.8120   25.3730 C.2   727  ILE727      0.2592
    182  O         27.7090   63.5590   25.7220 O.2   727  ILE727     -0.2718
    183  CB        24.4940   62.7170   25.5310 C.3   727  ILE727      0.0266
    184  CG1       24.5200   64.1780   25.0640 C.3   727  ILE727      0.0019
    185  CG2       23.3110   62.3860   26.3730 C.3   727  ILE727      0.0020
    186  CD1       23.5790   64.4960   23.8610 C.3   727  ILE727      0.0001
    187  N         26.8050   62.1980   24.2060 N.am  728  ASP728     -0.1974
    188  CA        27.7250   62.4670   23.1480 C.3   728  ASP728      0.1709
    189  C         29.1410   62.6290   23.7010 C.2   728  ASP728      0.2293
    190  O         29.6520   63.7270   23.7600 O.2   728  ASP728     -0.2864
    191  CB        27.1910   63.7320   22.4250 C.3   728  ASP728      0.1436
    192  CG        27.8950   64.0260   21.1180 C.2   728  ASP728      0.3671
    193  OD1       27.9060   63.1430   20.2090 O.co2 728  ASP728     -0.2456
    194  OD2       28.4210   65.1730   20.9860 O.co2 728  ASP728     -0.2456
@<TRIPOS>BOND
     1    27    26    2
     2    18    17    2
     3    26    25    1
     4     4     3    2
     5    25    24    1
     6    25    28    1
     7    36    35    2
     8    17    24   am
     9    17    16    1
    10    35    34    1
    11    12    11    2
    12    33    34    1
    13    33    39    1
    14     1     2    1
    15    34    37    1
    16    64    65    2
    17    64    63    1
    18     3     2    1
    19    43    42    2
    20    16    19    1
    21    16    15    1
    22    28    29    1
    23    40    41    1
    24     2     5    1
    25    11    15   am
    26    11    10    1
    27    30    29    1
    28    30    31    1
    29    63    62    1
    30    63    66    1
    31    39    38    1
    32    42    41    1
    33     9    10    1
    34    19    20    1
    35    32    31    1
    36    37    38    1
    37    41    44    1
    38    10    13    1
    39     5     6    1
    40    67    66    1
    41    67    68    1
    42    20    21    1
    43    71    72    1
    44    44    45    1
    45     6     7    1
    46    13    14    1
    47    46    45   ar
    48    46    48   ar
    49    22    21    1
    50    22    23    1
    51    56    57    2
    52    56    55    1
    53    45    47   ar
    54    74    73    2
    55    68    69    1
    56     8     7    1
    57    72    73    1
    58    72    75    1
    59    55    54    1
    60    55    58    1
    61    60    58    1
    62    48    49   ar
    63    75    76    1
    64    47    49   ar
    65    47    50   ar
    66    78    76   ar
    67    69    70    1
    68    76    77   ar
    69    58    59    1
    70    59    61    1
    71    49    51   ar
    72    50    52   ar
    73    91    92    1
    74   115   113    1
    75    51    53   ar
    76    52    53   ar
    77    94    93    2
    78    96    98    1
    79    96    95    1
    80   113   112    1
    81    92    95    1
    82    92    93    1
    83    95    97    1
    84   193   192   ar
    85    93    99   am
    86   194   192   ar
    87   192   191    1
    88   112   114    1
    89   112   109    1
    90   151   149   ar
    91   141   142    1
    92   141   140    1
    93    99   100    1
    94   142   143    1
    95   108   109    1
    96   108   101   am
    97   100   101    1
    98   100   103    1
    99   109   110    1
   100   140   139    1
   101   149   150   ar
   102   149   148    1
   103   101   102    2
   104   191   188    1
   105   188   189    1
   106   188   187    1
   107   159   157   am
   108   103   104    1
   109   148   145    1
   110   110   111    2
   111   110   116   am
   112   189   190    2
   113   139   136    1
   114   158   157    2
   115   133   132    1
   116   186   184    1
   117   104   105    1
   118   157   156    1
   119   147   146    2
   120   187   181   am
   121   136   135    1
   122   136   137    1
   123   116   117    1
   124   145   146    1
   125   145   144    1
   126    87    85   ar
   127    87    89   ar
   128   146   152   am
   129   132   134    1
   130   132   129    1
   131   167   166    1
   132   138   137    2
   133   184   183    1
   134    85    84   ar
   135   126   125    2
   136   119   118    2
   137    90    89    1
   138   105   107   ar
   139   105   106   ar
   140   181   182    2
   141   181   180    1
   142   166   165    1
   143   152   153    1
   144   183   180    1
   145   183   185    1
   146   156   153    1
   147    89    88   ar
   148   118   117    1
   149   153   154    1
   150   128   129    1
   151   117   120    1
   152   129   130    1
   153    84    83    1
   154    84    86   ar
   155   180   179    1
   156   125   124    1
   157   165   164    1
   158    82    81    2
   159    81    80    1
   160   123   124    1
   161    83    80    1
   162    88    86   ar
   163   120   122    1
   164   120   121    1
   165   154   155    2
   166   130   131    2
   167   124   127    1
   168    80    79    1
   169   164   161    1
   170   177   178   ar
   171   177   175   ar
   172   178   176   ar
   173   161   160    1
   174   161   162    1
   175   175   173   ar
   176   176   174   ar
   177   162   163    2
   178   171   170    2
   179   173   174   ar
   180   173   172    1
   181   170   169    1
   182   172   169    1
   183   169   168    1
