@<TRIPOS>MOLECULE
tmp/1e8zA00.pdb
 223 209 0 0 0
SMALL
GASTEIGER

@<TRIPOS>ATOM
      1  N         51.9070   13.9520   42.4750 N.3   563  LYS563     -0.1245
      2  CA        51.2920   15.1630   42.9770 C.3   563  LYS563      0.1561
      3  C         49.7870   15.2420   42.7750 C.2   563  LYS563      0.2260
      4  O         49.1230   14.2550   42.4890 O.2   563  LYS563     -0.2867
      5  CB        51.9790   16.3800   42.3610 C.3   563  LYS563      0.0271
      6  CG        52.3030   16.2380   40.9010 C.3   563  LYS563      0.0035
      7  CD        51.2510   16.8950   40.0480 C.3   563  LYS563      0.0206
      8  CE        51.7790   17.1440   38.6250 C.3   563  LYS563      0.1093
      9  NZ        50.7580   17.7380   37.7070 N.3   563  LYS563     -0.1314
     10  N         46.6970   17.4850   40.8280 N.3   565  MET565     -0.1245
     11  CA        46.3990   18.4060   39.7490 C.3   565  MET565      0.1570
     12  C         45.5080   19.5160   40.2510 C.2   565  MET565      0.2261
     13  O         44.7630   19.3560   41.2140 O.2   565  MET565     -0.2867
     14  CB        45.7100   17.6640   38.5890 C.3   565  MET565      0.0387
     15  CG        46.5800   17.4290   37.3280 C.3   565  MET565      0.0595
     16  SD        46.2410   15.8260   36.5650 S.3   565  MET565     -0.1393
     17  CE        46.5620   14.8820   37.9590 C.3   565  MET565      0.0692
     18  N         42.9800   20.8160   38.6690 N.3   567  SER567     -0.1202
     19  CA        41.5900   20.5050   38.3150 C.3   567  SER567      0.2020
     20  C         40.5060   20.7450   39.3640 C.2   567  SER567      0.2618
     21  O         40.7620   20.6700   40.5650 O.2   567  SER567     -0.2717
     22  CB        41.4770   19.0500   37.8160 C.3   567  SER567      0.2103
     23  OG        41.4630   18.9650   36.3900 O.3   567  SER567     -0.2182
     24  N         39.2900   21.0190   38.8700 N.am  568  LYS568     -0.1979
     25  CA        38.0880   21.2650   39.6900 C.3   568  LYS568      0.1596
     26  C         37.9030   20.2010   40.7790 C.2   568  LYS568      0.2287
     27  O         37.6040   20.5300   41.9310 O.2   568  LYS568     -0.2864
     28  CB        36.8280   21.3160   38.8030 C.3   568  LYS568      0.0298
     29  CG        37.0290   20.7700   37.3830 C.3   568  LYS568      0.0038
     30  CD        37.5900   19.3580   37.4130 C.3   568  LYS568      0.0206
     31  CE        38.3360   19.0220   36.1220 C.3   568  LYS568      0.1093
     32  NZ        37.4620   19.0150   34.9100 N.3   568  LYS568     -0.1314
     33  N         42.2660   15.3960   40.9870 N.3   571  PRO571     -0.2116
     34  CA        43.0260   14.3660   40.2770 C.3   571  PRO571      0.1372
     35  C         44.3490   14.0340   40.9670 C.2   571  PRO571      0.2244
     36  O         45.0380   14.9060   41.4760 O.2   571  PRO571     -0.2868
     37  CB        43.2580   14.9960   38.9090 C.3   571  PRO571      0.0268
     38  CG        42.0990   15.8550   38.7270 C.3   571  PRO571      0.0207
     39  CD        41.9270   16.4990   40.0730 C.3   571  PRO571      0.0892
     40  N         47.9810   12.7130   40.2270 N.3   573  TRP573     -0.1241
     41  CA        48.9700   12.4270   39.1700 C.3   573  TRP573      0.1605
     42  C         50.0920   11.5150   39.6990 C.2   573  TRP573      0.2264
     43  O         50.9500   11.9500   40.4480 O.2   573  TRP573     -0.2867
     44  CB        49.5540   13.7530   38.6290 C.3   573  TRP573      0.0550
     45  CG        50.6790   13.6390   37.6260 C.ar  573  TRP573      0.0003
     46  CD1       51.9410   13.1720   37.8540 C.ar  573  TRP573      0.0946
     47  CD2       50.6410   14.0430   36.2500 C.ar  573  TRP573      0.0152
     48  NE1       52.6980   13.2680   36.7010 N.ar  573  TRP573     -0.2442
     49  CE2       51.9260   13.7980   35.7040 C.ar  573  TRP573      0.0810
     50  CE3       49.6440   14.5900   35.4240 C.ar  573  TRP573      0.0012
     51  CZ2       52.2480   14.0850   34.3660 C.ar  573  TRP573      0.0191
     52  CZ3       49.9620   14.8770   34.0880 C.ar  573  TRP573      0.0001
     53  CH2       51.2600   14.6240   33.5720 C.ar  573  TRP573      0.0015
     54  N         46.6550    8.8380   35.8830 N.3   592  ILE592     -0.1245
     55  CA        45.8980    9.8000   36.6590 C.3   592  ILE592      0.1561
     56  C         44.7730    9.0200   37.3390 C.2   592  ILE592      0.2260
     57  O         44.1840    8.1430   36.7440 O.2   592  ILE592     -0.2867
     58  CB        45.2790   10.9210   35.7740 C.3   592  ILE592      0.0252
     59  CG1       46.3460   11.9680   35.4310 C.3   592  ILE592      0.0019
     60  CG2       44.1050   11.5610   36.4820 C.3   592  ILE592      0.0019
     61  CD1       45.9040   12.9410   34.3210 C.3   592  ILE592      0.0001
     62  N         41.2610    9.7600   39.2760 N.3   594  LYS594     -0.1245
     63  CA        40.2770   10.8010   39.4930 C.3   594  LYS594      0.1561
     64  C         39.0830   10.3130   40.2810 C.2   594  LYS594      0.2260
     65  O         38.8220    9.1170   40.3330 O.2   594  LYS594     -0.2867
     66  CB        39.8300   11.3510   38.1300 C.3   594  LYS594      0.0271
     67  CG        38.5070   12.1500   38.1360 C.3   594  LYS594      0.0035
     68  CD        38.7030   13.6590   38.1660 C.3   594  LYS594      0.0206
     69  CE        39.3460   14.1700   36.8940 C.3   594  LYS594      0.1093
     70  NZ        38.6020   13.6530   35.7280 N.3   594  LYS594     -0.1314
     71  N         33.5400   11.7680   38.6250 N.3   597  ASP597     -0.1239
     72  CA        33.3820   11.8720   37.1920 C.3   597  ASP597      0.1674
     73  C         32.7450   10.6110   36.6080 C.2   597  ASP597      0.2266
     74  O         33.0430    9.4800   37.0270 O.2   597  ASP597     -0.2867
     75  CB        34.7250   12.1550   36.5580 C.3   597  ASP597      0.1410
     76  CG        34.8660   13.5970   36.1500 C.2   597  ASP597      0.3668
     77  OD1       34.1850   14.0040   35.1790 O.co2 597  ASP597     -0.2456
     78  OD2       35.6310   14.3330   36.8060 O.co2 597  ASP597     -0.2456
     79  N         33.1040    8.3050   34.5840 N.3   599  LEU599     -0.1245
     80  CA        34.1450    7.6690   33.7810 C.3   599  LEU599      0.1561
     81  C         33.6110    6.6370   32.7980 C.2   599  LEU599      0.2260
     82  O         34.2420    6.3770   31.7830 O.2   599  LEU599     -0.2867
     83  CB        35.1600    7.0140   34.6840 C.3   599  LEU599      0.0270
     84  CG        36.5360    7.6290   34.5480 C.3   599  LEU599      0.0019
     85  CD1       36.4420    9.1320   34.5940 C.3   599  LEU599      0.0001
     86  CD2       37.4280    7.0930   35.6320 C.3   599  LEU599      0.0001
     87  N         33.1180    8.1560   29.3900 N.3   602  ASP602     -0.1239
     88  CA        34.3620    8.3260   28.6290 C.3   602  ASP602      0.1674
     89  C         34.7410    7.0030   27.9990 C.2   602  ASP602      0.2266
     90  O         35.1740    6.9770   26.8450 O.2   602  ASP602     -0.2867
     91  CB        35.4860    8.8050   29.5280 C.3   602  ASP602      0.1410
     92  CG        35.1610   10.1230   30.1910 C.2   602  ASP602      0.3668
     93  OD1       34.1520   10.1670   30.9580 O.co2 602  ASP602     -0.2456
     94  OD2       35.8990   11.1100   29.9240 O.co2 602  ASP602     -0.2456
     95  N         43.0600    7.3260   24.3330 N.3   628  TYR628     -0.1241
     96  CA        43.8720    7.0120   25.5010 C.3   628  TYR628      0.1605
     97  C         43.1240    6.1110   26.4830 C.2   628  TYR628      0.2264
     98  O         41.8760    6.1300   26.5850 O.2   628  TYR628     -0.2867
     99  CB        44.2510    8.3270   26.1940 C.3   628  TYR628      0.0534
    100  CG        43.0330    9.1950   26.4970 C.ar  628  TYR628     -0.0201
    101  CD1       42.2810    8.9830   27.6340 C.ar  628  TYR628     -0.0009
    102  CD2       42.6400   10.2310   25.6180 C.ar  628  TYR628     -0.0009
    103  CE1       41.1720    9.7520   27.9200 C.ar  628  TYR628      0.0417
    104  CE2       41.5190   11.0270   25.8990 C.ar  628  TYR628      0.0417
    105  CZ        40.7940   10.7770   27.0550 C.ar  628  TYR628      0.1957
    106  OH        39.7050   11.5400   27.4100 O.3   628  TYR628     -0.2866
    107  N         41.4380    4.4720   29.6720 N.3   630  CYS630     -0.1235
    108  CA        40.5140    5.0020   30.6590 C.3   630  CYS630      0.1677
    109  C         39.6030    3.8950   31.1860 C.2   630  CYS630      0.2270
    110  O         38.7460    3.3980   30.4640 O.2   630  CYS630     -0.2867
    111  CB        39.6520    6.1180   30.0330 C.3   630  CYS630      0.0956
    112  SG        38.4740    6.8190   31.1780 S.3   630  CYS630     -0.0801
    113  N         43.0980    7.1580   34.5910 N.3   640  ILE640     -0.1231
    114  CA        43.2570    7.6230   33.2250 C.3   640  ILE640      0.1692
    115  C         44.7180    7.5690   32.7420 C.2   640  ILE640      0.2592
    116  O         45.6570    7.7980   33.5000 O.2   640  ILE640     -0.2718
    117  CB        42.7640    9.0630   33.1100 C.3   640  ILE640      0.0266
    118  CG1       41.2780    9.1440   33.5050 C.3   640  ILE640      0.0019
    119  CG2       43.0360    9.5860   31.7030 C.3   640  ILE640      0.0020
    120  CD1       40.8370   10.5170   33.9890 C.3   640  ILE640      0.0001
    121  N         44.9150    7.2630   31.4730 N.am  641  GLU641     -0.1966
    122  CA        46.2550    7.2040   30.9270 C.3   641  GLU641      0.1733
    123  C         46.8070    8.6500   30.6740 C.2   641  GLU641      0.2616
    124  O         46.0990    9.5350   30.1990 O.2   641  GLU641     -0.2715
    125  CB        46.2360    6.4080   29.6270 C.3   641  GLU641      0.0429
    126  CG        47.5640    6.4030   28.9450 C.3   641  GLU641      0.1163
    127  CD        47.5310    5.8930   27.5050 C.2   641  GLU641      0.3649
    128  OE1       48.6300    5.7130   26.9540 O.co2 641  GLU641     -0.2457
    129  OE2       46.4470    5.6760   26.9080 O.co2 641  GLU641     -0.2457
    130  N         48.0760    8.8660   31.0260 N.am  642  ILE642     -0.1963
    131  CA        48.7350   10.1570   30.8070 C.3   642  ILE642      0.1727
    132  C         49.5440   10.0380   29.5260 C.2   642  ILE642      0.2616
    133  O         50.4870    9.2380   29.4520 O.2   642  ILE642     -0.2715
    134  CB        49.6920   10.5150   31.9770 C.3   642  ILE642      0.0290
    135  CG1       48.8690   10.9370   33.1900 C.3   642  ILE642      0.0022
    136  CG2       50.6370   11.6290   31.5590 C.3   642  ILE642      0.0023
    137  CD1       49.6570   11.0140   34.4810 C.3   642  ILE642      0.0001
    138  N         49.1490   10.7950   28.5000 N.am  643  VAL643     -0.1977
    139  CA        49.8920   10.7700   27.2330 C.3   643  VAL643      0.1596
    140  C         51.1870   11.5600   27.4640 C.2   643  VAL643      0.2287
    141  O         51.2010   12.5690   28.1840 O.2   643  VAL643     -0.2864
    142  CB        49.1000   11.4320   26.1130 C.3   643  VAL643      0.0276
    143  CG1       49.9500   11.5400   24.8260 C.3   643  VAL643      0.0022
    144  CG2       47.8000   10.6520   25.9130 C.3   643  VAL643      0.0022
    145  N         52.3930   16.2070   26.1910 N.3   646  ALA646     -0.1231
    146  CA        51.1490   16.8010   25.7340 C.3   646  ALA646      0.1694
    147  C         50.5910   17.8730   26.7050 C.2   646  ALA646      0.2593
    148  O         50.7250   17.7890   27.9490 O.2   646  ALA646     -0.2718
    149  CB        50.0890   15.6950   25.5240 C.3   646  ALA646      0.0304
    150  N         49.9780   18.9020   26.1290 N.am  647  THR647     -0.1939
    151  CA        49.3550   19.9420   26.9360 C.3   647  THR647      0.2028
    152  C         48.0920   20.2860   26.1900 C.2   647  THR647      0.2642
    153  O         47.9110   19.8610   25.0590 O.2   647  THR647     -0.2714
    154  CB        50.2210   21.2240   27.0660 C.3   647  THR647      0.1808
    155  OG1       50.6690   21.6270   25.7500 O.3   647  THR647     -0.2208
    156  CG2       51.4130   20.9620   27.9470 C.3   647  THR647      0.0379
    157  N         47.2590   21.0830   26.8370 N.am  648  THR648     -0.1950
    158  CA        46.0120   21.5860   26.3180 C.3   648  THR648      0.1897
    159  C         46.2960   22.6840   25.3190 C.2   648  THR648      0.2313
    160  O         47.3660   23.3230   25.3650 O.2   648  THR648     -0.2863
    161  CB        45.1840   22.2450   27.4520 C.3   648  THR648      0.1794
    162  OG1       45.0020   21.3020   28.5060 O.3   648  THR648     -0.2208
    163  CG2       43.7900   22.6780   26.9590 C.3   648  THR648      0.0378
    164  N         46.3670   25.8690   27.5050 N.3   651  LYS651     -0.1245
    165  CA        47.6230   26.1360   28.1830 C.3   651  LYS651      0.1561
    166  C         48.6880   26.6880   27.2230 C.2   651  LYS651      0.2260
    167  O         49.5770   27.4450   27.6460 O.2   651  LYS651     -0.2867
    168  CB        48.0990   24.8560   28.8420 C.3   651  LYS651      0.0271
    169  CG        49.1030   25.0500   29.9520 C.3   651  LYS651      0.0035
    170  CD        48.9200   23.9520   31.0300 C.3   651  LYS651      0.0206
    171  CE        47.4830   23.9280   31.6160 C.3   651  LYS651      0.1093
    172  NZ        47.1710   22.6850   32.4010 N.3   651  LYS651     -0.1314
    173  N         40.2360   24.0390   26.5960 N.3   710  ASP710     -0.1225
    174  CA        40.9020   23.3480   27.6610 C.3   710  ASP710      0.1805
    175  C         40.6430   21.8220   27.6380 C.2   710  ASP710      0.2597
    176  O         41.2350   21.0830   28.4160 O.2   710  ASP710     -0.2718
    177  CB        40.4710   23.9370   29.0140 C.3   710  ASP710      0.1424
    178  CG        41.5940   23.8850   30.0260 C.2   710  ASP710      0.3668
    179  OD1       42.7730   23.7520   29.6240 O.co2 710  ASP710     -0.2456
    180  OD2       41.3080   23.9800   31.2280 O.co2 710  ASP710     -0.2456
    181  N         39.7530   21.3640   26.7710 N.am  711  ASN711     -0.1974
    182  CA        39.4630   19.9350   26.7090 C.3   711  ASN711      0.1688
    183  C         40.0450   19.3210   25.4780 C.2   711  ASN711      0.2292
    184  O         39.7480   18.1780   25.1470 O.2   711  ASN711     -0.2864
    185  CB        37.9570   19.7080   26.7810 C.3   711  ASN711      0.1181
    186  CG        37.4160   20.0460   28.1670 C.2   711  ASN711      0.2629
    187  OD1       36.4740   20.8240   28.3180 O.2   711  ASN711     -0.2716
    188  ND2       38.0420   19.4840   29.1850 N.am  711  ASN711     -0.0877
    189  N         43.6550   18.4450   23.6020 N.3   713  MET713     -0.1245
    190  CA        45.0820   18.3310   23.8160 C.3   713  MET713      0.1570
    191  C         45.8780   18.0380   22.5480 C.2   713  MET713      0.2261
    192  O         45.3090   17.7640   21.4840 O.2   713  MET713     -0.2867
    193  CB        45.3500   17.2840   24.8830 C.3   713  MET713      0.0387
    194  CG        44.8070   17.6800   26.2400 C.3   713  MET713      0.0595
    195  SD        45.5350   16.6120   27.5180 S.3   713  MET713     -0.1393
    196  CE        47.3830   17.1170   27.4490 C.3   713  MET713      0.0692
    197  N         44.0180   15.6570   20.1480 N.3   721  PHE721     -0.1241
    198  CA        43.0700   14.6780   20.6510 C.3   721  PHE721      0.1605
    199  C         42.2260   15.2440   21.7590 C.2   721  PHE721      0.2264
    200  O         42.7540   15.8820   22.6620 O.2   721  PHE721     -0.2867
    201  CB        43.7960   13.4200   21.1450 C.3   721  PHE721      0.0534
    202  CG        44.7190   13.6520   22.2800 C.ar  721  PHE721     -0.0203
    203  CD1       44.2860   13.5400   23.5870 C.ar  721  PHE721     -0.0042
    204  CD2       46.0440   13.9500   22.0390 C.ar  721  PHE721     -0.0042
    205  CE1       45.1890   13.7270   24.6480 C.ar  721  PHE721     -0.0003
    206  CE2       46.9460   14.1380   23.0870 C.ar  721  PHE721     -0.0003
    207  CZ        46.5210   14.0260   24.3910 C.ar  721  PHE721     -0.0000
    208  N         39.5710   15.2170   25.0840 N.3   723  ILE723     -0.1231
    209  CA        39.5870   14.5020   26.3640 C.3   723  ILE723      0.1692
    210  C         38.3540   14.9650   27.1430 C.2   723  ILE723      0.2592
    211  O         37.5960   15.7990   26.6340 O.2   723  ILE723     -0.2718
    212  CB        40.8180   14.8800   27.1900 C.3   723  ILE723      0.0266
    213  CG1       40.7580   16.3800   27.5130 C.3   723  ILE723      0.0019
    214  CG2       42.1040   14.4490   26.4720 C.3   723  ILE723      0.0020
    215  CD1       41.6870   16.8230   28.6330 C.3   723  ILE723      0.0001
    216  N         38.1590   14.4180   28.3500 N.am  724  ASP724     -0.1974
    217  CA        37.0470   14.8350   29.2190 C.3   724  ASP724      0.1709
    218  C         35.6840   14.7310   28.5830 C.2   724  ASP724      0.2293
    219  O         34.8950   15.6530   28.6300 O.2   724  ASP724     -0.2864
    220  CB        37.2120   16.2920   29.6360 C.3   724  ASP724      0.1436
    221  CG        38.3400   16.5130   30.6470 C.2   724  ASP724      0.3671
    222  OD1       39.5360   16.5130   30.2700 O.co2 724  ASP724     -0.2456
    223  OD2       38.0220   16.7090   31.8450 O.co2 724  ASP724     -0.2456
@<TRIPOS>BOND
     1   197   198    1
     2   198   201    1
     3   198   199    1
     4   201   202    1
     5   192   191    2
     6   199   200    2
     7   204   202   ar
     8   204   206   ar
     9   202   203   ar
    10   191   190    1
    11   206   207   ar
    12   203   205   ar
    13   189   190    1
    14   190   193    1
    15    95    96    1
    16   207   205   ar
    17   143   142    1
    18   193   194    1
    19   153   152    2
    20   208   209    1
    21   184   183    2
    22   159   160    2
    23   159   158    1
    24   183   182    1
    25    96    99    1
    26    96    97    1
    27   149   146    1
    28   102   104   ar
    29   102   100   ar
    30   146   145    1
    31   146   147    1
    32   155   154    1
    33   104   105   ar
    34   144   142    1
    35   142   139    1
    36   150   147   am
    37   150   151    1
    38   152   157   am
    39   152   151    1
    40    99   100    1
    41   194   195    1
    42   158   157    1
    43   158   161    1
    44   209   210    1
    45   209   212    1
    46   214   212    1
    47    97    98    2
    48   100   101   ar
    49   173   174    1
    50   211   210    2
    51   147   148    2
    52   182   181    1
    53   182   185    1
    54   181   175   am
    55   185   186    1
    56    90    89    2
    57   129   127   ar
    58   151   154    1
    59   128   127   ar
    60   163   161    1
    61   105   106    1
    62   105   103   ar
    63   154   156    1
    64   210   216   am
    65   212   213    1
    66   166   167    2
    67   166   165    1
    68   139   140    1
    69   139   138    1
    70   196   195    1
    71   161   162    1
    72   140   141    2
    73   127   126    1
    74   164   165    1
    75   213   215    1
    76   101   103   ar
    77   175   174    1
    78   175   176    2
    79   174   177    1
    80    89    88    1
    81   186   187    2
    82   186   188   am
    83   165   168    1
    84   216   217    1
    85   138   132   am
    86   218   219    2
    87   218   217    1
    88    88    87    1
    89    88    91    1
    90   168   169    1
    91   126   125    1
    92   177   178    1
    93   217   220    1
    94   133   132    2
    95   132   131    1
    96    91    92    1
    97   179   178   ar
    98   125   122    1
    99   220   221    1
   100   107   108    1
   101    94    92   ar
   102   169   170    1
   103   178   180   ar
   104   111   108    1
   105   111   112    1
   106    92    93   ar
   107   124   123    2
   108   222   221   ar
   109   110   109    2
   110   221   223   ar
   111   108   109    1
   112   123   122    1
   113   123   130   am
   114   131   130    1
   115   131   134    1
   116   122   121    1
   117   170   171    1
   118   121   115   am
   119   136   134    1
   120   171   172    1
   121   119   117    1
   122    82    81    2
   123   134   135    1
   124   115   114    1
   125   115   116    2
   126    81    80    1
   127   117   114    1
   128   117   118    1
   129   135   137    1
   130   114   113    1
   131   118   120    1
   132    53    52   ar
   133    53    51   ar
   134    80    79    1
   135    80    83    1
   136    52    50   ar
   137    61    59    1
   138    51    49   ar
   139    84    85    1
   140    84    83    1
   141    84    86    1
   142    32    31    1
   143    77    76   ar
   144    50    47   ar
   145    59    58    1
   146    49    47   ar
   147    49    48   ar
   148    70    69    1
   149    58    60    1
   150    58    55    1
   151    54    55    1
   152    31    30    1
   153    76    75    1
   154    76    78   ar
   155    47    45   ar
   156    23    22    1
   157    75    72    1
   158    16    15    1
   159    16    17    1
   160    73    74    2
   161    73    72    1
   162    55    56    1
   163    48    46   ar
   164    57    56    2
   165    69    68    1
   166    72    71    1
   167    15    14    1
   168    29    30    1
   169    29    28    1
   170    45    46   ar
   171    45    44    1
   172     9     8    1
   173    22    19    1
   174    66    67    1
   175    66    63    1
   176    67    68    1
   177    19    18    1
   178    19    20    1
   179    14    11    1
   180     8     7    1
   181    44    41    1
   182    38    37    1
   183    38    39    1
   184    28    25    1
   185    24    20   am
   186    24    25    1
   187    37    34    1
   188    41    42    1
   189    41    40    1
   190    62    63    1
   191    20    21    2
   192    63    64    1
   193    25    26    1
   194    42    43    2
   195    11    12    1
   196    11    10    1
   197     7     6    1
   198    39    33    1
   199    12    13    2
   200    34    35    1
   201    34    33    1
   202    64    65    2
   203    26    27    2
   204     6     5    1
   205    35    36    2
   206     5     2    1
   207     1     2    1
   208     4     3    2
   209     3     2    1
