@<TRIPOS>MOLECULE
tmp/1e90A00.pdb
 160 150 0 0 0
SMALL
GASTEIGER

@<TRIPOS>ATOM
      1  N         18.4290   64.6790   12.1710 N.3   565  MET565     -0.1245
      2  CA        18.6470   65.6160   13.2650 C.3   565  MET565      0.1570
      3  C         19.3860   66.8830   12.8610 C.2   565  MET565      0.2261
      4  O         20.3010   66.8560   12.0360 O.2   565  MET565     -0.2867
      5  CB        19.3780   64.9230   14.4240 C.3   565  MET565      0.0387
      6  CG        18.4480   64.0680   15.2950 C.3   565  MET565      0.0595
      7  SD        19.2210   63.1900   16.6710 S.3   565  MET565     -0.1393
      8  CE        19.5640   61.6450   15.8820 C.3   565  MET565      0.0692
      9  N         21.7090   68.2670   13.6300 N.3   567  SER567     -0.1217
     10  CA        23.0430   68.1570   14.1930 C.3   567  SER567      0.1889
     11  C         24.0670   68.2940   13.0780 C.2   567  SER567      0.2288
     12  O         23.7560   68.0950   11.9040 O.2   567  SER567     -0.2866
     13  CB        23.2170   66.8050   14.8890 C.3   567  SER567      0.2089
     14  OG        24.5320   66.6550   15.4020 O.3   567  SER567     -0.2183
     15  N         22.8210   63.0340   12.1300 N.3   571  PRO571     -0.2116
     16  CA        22.4750   61.6470   12.4560 C.3   571  PRO571      0.1372
     17  C         21.0300   61.3560   12.0720 C.2   571  PRO571      0.2244
     18  O         20.2810   62.2660   11.7200 O.2   571  PRO571     -0.2868
     19  CB        22.6720   61.5820   13.9740 C.3   571  PRO571      0.0268
     20  CG        23.5090   62.8180   14.2990 C.3   571  PRO571      0.0207
     21  CD        22.9640   63.8300   13.3570 C.3   571  PRO571      0.0892
     22  N         17.2860   60.0120   13.1500 N.3   573  TRP573     -0.1241
     23  CA        16.3680   59.8150   14.2720 C.3   573  TRP573      0.1605
     24  C         15.2700   58.9050   13.7480 C.2   573  TRP573      0.2264
     25  O         14.2910   59.3790   13.1830 O.2   573  TRP573     -0.2867
     26  CB        15.7680   61.1600   14.7090 C.3   573  TRP573      0.0550
     27  CG        14.6580   61.0840   15.7540 C.ar  573  TRP573      0.0003
     28  CD1       13.3970   60.5790   15.5900 C.ar  573  TRP573      0.0946
     29  CD2       14.7380   61.5210   17.1120 C.ar  573  TRP573      0.0152
     30  NE1       12.6900   60.6750   16.7640 N.ar  573  TRP573     -0.2442
     31  CE2       13.4910   61.2470   17.7160 C.ar  573  TRP573      0.0810
     32  CE3       15.7440   62.1150   17.8800 C.ar  573  TRP573      0.0012
     33  CZ2       13.2270   61.5480   19.0550 C.ar  573  TRP573      0.0191
     34  CZ3       15.4820   62.4150   19.2100 C.ar  573  TRP573      0.0001
     35  CH2       14.2330   62.1300   19.7840 C.ar  573  TRP573      0.0015
     36  N         19.0530   55.9390   17.0750 N.3   592  ILE592     -0.1245
     37  CA        19.8390   56.9380   16.3630 C.3   592  ILE592      0.1561
     38  C         21.0450   56.3250   15.6720 C.2   592  ILE592      0.2260
     39  O         21.8850   55.7110   16.3220 O.2   592  ILE592     -0.2867
     40  CB        20.3820   58.0210   17.3080 C.3   592  ILE592      0.0252
     41  CG1       19.2430   58.8700   17.8530 C.3   592  ILE592      0.0019
     42  CG2       21.3700   58.9120   16.5700 C.3   592  ILE592      0.0019
     43  CD1       19.7450   59.9630   18.7800 C.3   592  ILE592      0.0001
     44  N         24.3950   57.1760   13.6910 N.3   594  LYS594     -0.1245
     45  CA        25.2700   58.3200   13.4870 C.3   594  LYS594      0.1561
     46  C         26.6170   57.9760   12.8720 C.2   594  LYS594      0.2260
     47  O         27.1760   56.9070   13.1080 O.2   594  LYS594     -0.2867
     48  CB        25.4800   59.0470   14.8190 C.3   594  LYS594      0.0271
     49  CG        26.1320   60.4080   14.6880 C.3   594  LYS594      0.0035
     50  CD        26.1670   61.1350   16.0220 C.3   594  LYS594      0.0206
     51  CE        26.5460   62.5980   15.8350 C.3   594  LYS594      0.1093
     52  NZ        26.6050   63.3500   17.1210 N.3   594  LYS594     -0.1314
     53  N         31.3440   60.2650   14.9000 N.3   597  ASP597     -0.1239
     54  CA        31.9410   60.0680   16.2140 C.3   597  ASP597      0.1674
     55  C         32.3810   58.6140   16.3980 C.2   597  ASP597      0.2266
     56  O         31.7810   57.7000   15.8340 O.2   597  ASP597     -0.2867
     57  CB        30.9440   60.4380   17.3210 C.3   597  ASP597      0.1410
     58  CG        30.6700   61.9280   17.3950 C.2   597  ASP597      0.3668
     59  OD1       31.6420   62.7080   17.4940 O.co2 597  ASP597     -0.2456
     60  OD2       29.4840   62.3160   17.3660 O.co2 597  ASP597     -0.2456
     61  N         32.0520   55.7870   18.2950 N.3   599  LEU599     -0.1245
     62  CA        31.1600   55.2220   19.3050 C.3   599  LEU599      0.1561
     63  C         31.7950   54.1260   20.1700 C.2   599  LEU599      0.2260
     64  O         31.2000   53.6870   21.1550 O.2   599  LEU599     -0.2867
     65  CB        29.8820   54.7010   18.6400 C.3   599  LEU599      0.0270
     66  CG        28.9890   55.7650   17.9980 C.3   599  LEU599      0.0019
     67  CD1       27.7620   55.1040   17.3950 C.3   599  LEU599      0.0001
     68  CD2       28.5670   56.8140   19.0250 C.3   599  LEU599      0.0001
     69  N         32.2520   55.8530   23.4150 N.3   602  ASP602     -0.1239
     70  CA        31.0110   55.9630   24.1710 C.3   602  ASP602      0.1674
     71  C         30.6380   54.6130   24.7620 C.2   602  ASP602      0.2266
     72  O         30.3090   54.4910   25.9420 O.2   602  ASP602     -0.2867
     73  CB        29.8910   56.4460   23.2540 C.3   602  ASP602      0.1410
     74  CG        30.1030   57.8460   22.8010 C.2   602  ASP602      0.3668
     75  OD1       31.2750   58.2110   22.6060 O.co2 602  ASP602     -0.2456
     76  OD2       29.1050   58.5810   22.6630 O.co2 602  ASP602     -0.2456
     77  N         22.2340   54.6620   28.6470 N.3   628  TYR628     -0.1241
     78  CA        21.5440   54.2560   27.4290 C.3   628  TYR628      0.1605
     79  C         22.3950   53.3030   26.5840 C.2   628  TYR628      0.2264
     80  O         23.6280   53.3450   26.6290 O.2   628  TYR628     -0.2867
     81  CB        21.1990   55.5000   26.6140 C.3   628  TYR628      0.0534
     82  CG        22.4020   56.3830   26.3510 C.ar  628  TYR628     -0.0201
     83  CD1       23.3100   56.0760   25.3430 C.ar  628  TYR628     -0.0009
     84  CD2       22.6480   57.5110   27.1370 C.ar  628  TYR628     -0.0009
     85  CE1       24.4320   56.8680   25.1250 C.ar  628  TYR628      0.0417
     86  CE2       23.7650   58.3090   26.9230 C.ar  628  TYR628      0.0417
     87  CZ        24.6510   57.9810   25.9180 C.ar  628  TYR628      0.1957
     88  OH        25.7580   58.7630   25.7070 O.3   628  TYR628     -0.2866
     89  N         22.4190   54.5270   18.6980 N.3   640  ILE640     -0.1231
     90  CA        22.2840   55.1260   20.0190 C.3   640  ILE640      0.1692
     91  C         20.8390   55.0230   20.4870 C.2   640  ILE640      0.2592
     92  O         19.9230   55.4080   19.7620 O.2   640  ILE640     -0.2718
     93  CB        22.6740   56.6280   20.0040 C.3   640  ILE640      0.0266
     94  CG1       24.1390   56.7870   19.6120 C.3   640  ILE640      0.0019
     95  CG2       22.4340   57.2450   21.3720 C.3   640  ILE640      0.0020
     96  CD1       25.0950   56.1470   20.5780 C.3   640  ILE640      0.0001
     97  N         20.6330   54.5080   21.6950 N.am  641  GLU641     -0.1966
     98  CA        19.2870   54.3890   22.2320 C.3   641  GLU641      0.1733
     99  C         18.7160   55.7770   22.4760 C.2   641  GLU641      0.2616
    100  O         19.4120   56.6570   22.9820 O.2   641  GLU641     -0.2715
    101  CB        19.2970   53.6280   23.5560 C.3   641  GLU641      0.0429
    102  CG        17.9220   53.4540   24.1640 C.3   641  GLU641      0.1163
    103  CD        17.9740   52.8890   25.5640 C.2   641  GLU641      0.3649
    104  OE1       16.8940   52.6680   26.1540 O.co2 641  GLU641     -0.2457
    105  OE2       19.0950   52.6720   26.0760 O.co2 641  GLU641     -0.2457
    106  N         17.4530   55.9690   22.1150 N.am  642  ILE642     -0.1963
    107  CA        16.7880   57.2470   22.3210 C.3   642  ILE642      0.1727
    108  C         16.0370   57.2220   23.6450 C.2   642  ILE642      0.2616
    109  O         15.1400   56.4040   23.8230 O.2   642  ILE642     -0.2715
    110  CB        15.7520   57.5310   21.2190 C.3   642  ILE642      0.0290
    111  CG1       16.4390   58.0290   19.9580 C.3   642  ILE642      0.0022
    112  CG2       14.7600   58.5790   21.6990 C.3   642  ILE642      0.0023
    113  CD1       16.8610   59.4660   20.0470 C.3   642  ILE642      0.0001
    114  N         16.3940   58.1070   24.5710 N.am  643  VAL643     -0.1977
    115  CA        15.7000   58.1780   25.8520 C.3   643  VAL643      0.1596
    116  C         14.4980   59.0950   25.6540 C.2   643  VAL643      0.2287
    117  O         14.6530   60.2830   25.3600 O.2   643  VAL643     -0.2864
    118  CB        16.5940   58.7690   26.9480 C.3   643  VAL643      0.0276
    119  CG1       15.8340   58.8480   28.2630 C.3   643  VAL643      0.0022
    120  CG2       17.8420   57.9270   27.0930 C.3   643  VAL643      0.0022
    121  N         13.0680   63.5780   26.8170 N.3   646  ALA646     -0.1245
    122  CA        14.2890   64.2080   27.2950 C.3   646  ALA646      0.1562
    123  C         14.7690   65.2830   26.3280 C.2   646  ALA646      0.2260
    124  O         14.5250   65.1950   25.1230 O.2   646  ALA646     -0.2867
    125  CB        15.3620   63.1560   27.4730 C.3   646  ALA646      0.0290
    126  N         21.6530   66.0020   29.2430 N.3   714  MET714     -0.1245
    127  CA        20.2060   65.9780   29.0640 C.3   714  MET714      0.1570
    128  C         19.4200   65.7570   30.3450 C.2   714  MET714      0.2261
    129  O         19.9720   65.3410   31.3650 O.2   714  MET714     -0.2867
    130  CB        19.8290   64.9100   28.0330 C.3   714  MET714      0.0387
    131  CG        20.5260   65.0920   26.6980 C.3   714  MET714      0.0595
    132  SD        19.7780   64.1180   25.3930 S.3   714  MET714     -0.1393
    133  CE        18.4330   65.1590   24.9440 C.3   714  MET714      0.0692
    134  N         21.3210   63.1770   32.6350 N.3   722  PHE722     -0.1241
    135  CA        22.2260   62.1460   32.1480 C.3   722  PHE722      0.1605
    136  C         23.0920   62.6720   31.0350 C.2   722  PHE722      0.2264
    137  O         22.5960   63.2050   30.0500 O.2   722  PHE722     -0.2867
    138  CB        21.4400   60.9200   31.6720 C.3   722  PHE722      0.0534
    139  CG        20.5560   61.1780   30.4780 C.ar  722  PHE722     -0.0203
    140  CD1       21.0180   60.9520   29.1830 C.ar  722  PHE722     -0.0042
    141  CD2       19.2530   61.6280   30.6500 C.ar  722  PHE722     -0.0042
    142  CE1       20.1860   61.1680   28.0790 C.ar  722  PHE722     -0.0003
    143  CE2       18.4220   61.8460   29.5610 C.ar  722  PHE722     -0.0003
    144  CZ        18.8870   61.6150   28.2730 C.ar  722  PHE722     -0.0000
    145  N         25.4850   62.6450   27.7760 N.3   724  ILE724     -0.1231
    146  CA        25.3960   61.9720   26.4780 C.3   724  ILE724      0.1692
    147  C         26.6900   61.9900   25.6660 C.2   724  ILE724      0.2592
    148  O         27.6740   61.3780   26.0520 O.2   724  ILE724     -0.2718
    149  CB        24.3040   62.6190   25.6440 C.3   724  ILE724      0.0266
    150  CG1       24.3440   64.1440   25.8450 C.3   724  ILE724      0.0019
    151  CG2       22.9670   62.0130   25.9960 C.3   724  ILE724      0.0020
    152  CD1       23.4270   64.9630   24.9360 C.3   724  ILE724      0.0001
    153  N         26.6880   62.6680   24.5320 N.am  725  ASP725     -0.1974
    154  CA        27.9040   62.6870   23.7310 C.3   725  ASP725      0.1709
    155  C         29.2230   62.3980   24.4720 C.2   725  ASP725      0.2293
    156  O         29.8010   63.2990   25.0760 O.2   725  ASP725     -0.2864
    157  CB        28.0520   64.0260   23.0230 C.3   725  ASP725      0.1436
    158  CG        28.4670   63.8560   21.6100 C.2   725  ASP725      0.3671
    159  OD1       29.3790   63.0420   21.3730 O.co2 725  ASP725     -0.2456
    160  OD2       27.8690   64.5180   20.7330 O.co2 725  ASP725     -0.2456
@<TRIPOS>BOND
     1    18    17    2
     2    12    11    2
     3     4     3    2
     4    17    16    1
     5    15    16    1
     6    15    21    1
     7     1     2    1
     8    16    19    1
     9     3     2    1
    10    46    47    2
    11    46    45    1
    12    11    10    1
    13    22    23    1
    14    25    24    2
    15     2     5    1
    16    21    20    1
    17    45    44    1
    18    45    48    1
    19     9    10    1
    20    24    23    1
    21    19    20    1
    22    10    13    1
    23    23    26    1
    24     5     6    1
    25    49    48    1
    26    49    50    1
    27    26    27    1
    28    13    14    1
    29    53    54    1
    30     6     7    1
    31    28    27   ar
    32    28    30   ar
    33    38    39    2
    34    38    37    1
    35    27    29   ar
    36    56    55    2
    37    51    50    1
    38    51    52    1
    39     8     7    1
    40    54    55    1
    41    54    57    1
    42    37    36    1
    43    37    40    1
    44    42    40    1
    45    30    31   ar
    46    29    31   ar
    47    29    32   ar
    48    40    41    1
    49    57    58    1
    50    60    58   ar
    51    67    66    1
    52    58    59   ar
    53    31    33   ar
    54    41    43    1
    55    32    34   ar
    56    66    65    1
    57    66    68    1
    58    61    62    1
    59    65    62    1
    60    89    90    1
    61    33    35   ar
    62    34    35   ar
    63    62    63    1
    64    94    93    1
    65    94    96    1
    66    92    91    2
    67   111   113    1
    68   111   110    1
    69    93    90    1
    70    93    95    1
    71    90    91    1
    72    63    64    2
    73    91    97   am
    74   160   158   ar
    75   110   112    1
    76   110   107    1
    77   159   158   ar
    78   158   157    1
    79    97    98    1
    80   106   107    1
    81   106    99   am
    82    98    99    1
    83    98   101    1
    84   107   108    1
    85    99   100    2
    86    75    74   ar
    87    76    74   ar
    88    74    73    1
    89   157   154    1
    90    73    70    1
    91    69    70    1
    92   101   102    1
    93   108   109    2
    94   108   114   am
    95   154   155    1
    96   154   153    1
    97   102   103    1
    98    70    71    1
    99   155   156    2
   100   153   147   am
   101   114   115    1
   102    71    72    2
   103   152   150    1
   104   133   132    1
   105   124   123    2
   106    85    83   ar
   107    85    87   ar
   108    83    82   ar
   109   117   116    2
   110   132   131    1
   111   103   105   ar
   112   103   104   ar
   113   149   150    1
   114   149   151    1
   115   149   146    1
   116   116   115    1
   117   147   148    2
   118   147   146    1
   119    88    87    1
   120   115   118    1
   121    87    86   ar
   122   123   122    1
   123    82    81    1
   124    82    84   ar
   125   146   145    1
   126    79    80    2
   127    79    78    1
   128    81    78    1
   129   131   130    1
   130   121   122    1
   131    86    84   ar
   132   118   120    1
   133   118   119    1
   134   122   125    1
   135    78    77    1
   136   130   127    1
   137   142   144   ar
   138   142   140   ar
   139   144   143   ar
   140   127   126    1
   141   127   128    1
   142   140   139   ar
   143   143   141   ar
   144   137   136    2
   145   128   129    2
   146   139   141   ar
   147   139   138    1
   148   136   135    1
   149   138   135    1
   150   135   134    1
