@<TRIPOS>MOLECULE
tmp/1e94F00.pdb
 187 178 0 0 0
SMALL
GASTEIGER

@<TRIPOS>ATOM
      1  N         23.3690  137.2580  -27.9880 N.3    16  HIS16      -0.1226
      2  CA        23.5790  135.8850  -28.3970 C.3    16  HIS16       0.1752
      3  C         23.3400  135.6400  -29.8610 C.2    16  HIS16       0.2596
      4  O         23.8620  134.6640  -30.4120 O.2    16  HIS16      -0.2718
      5  CB        22.6760  134.9870  -27.5820 C.3    16  HIS16       0.0759
      6  CG        22.9610  135.0420  -26.1180 C.ar   16  HIS16       0.0818
      7  ND1       24.0530  134.4150  -25.5510 N.ar   16  HIS16      -0.2268
      8  CD2       22.3450  135.7130  -25.1150 C.ar   16  HIS16       0.1154
      9  CE1       24.0950  134.7020  -24.2610 C.ar   16  HIS16       0.1986
     10  NE2       23.0720  135.4890  -23.9720 N.ar   16  HIS16      -0.2212
     11  N         22.5570  136.5180  -30.4900 N.am   17  ILE17      -0.1966
     12  CA        22.2100  136.3770  -31.9040 C.3    17  ILE17       0.1727
     13  C         22.6870  137.5950  -32.6810 C.2    17  ILE17       0.2616
     14  O         22.4540  138.7360  -32.2790 O.2    17  ILE17      -0.2715
     15  CB        20.6670  136.2250  -32.1050 C.3    17  ILE17       0.0290
     16  CG1       20.1650  134.9480  -31.4620 C.3    17  ILE17       0.0022
     17  CG2       20.3190  136.1360  -33.5440 C.3    17  ILE17       0.0023
     18  CD1       20.0880  135.0290  -29.9830 C.3    17  ILE17       0.0001
     19  N         23.3690  137.3440  -33.7930 N.am   18  ILE18      -0.1977
     20  CA        23.8710  138.4080  -34.6420 C.3    18  ILE18       0.1596
     21  C         22.8210  138.7010  -35.6920 C.2    18  ILE18       0.2287
     22  O         22.4990  137.8350  -36.5040 O.2    18  ILE18      -0.2864
     23  CB        25.1710  137.9840  -35.3980 C.3    18  ILE18       0.0276
     24  CG1       26.3510  137.8870  -34.4340 C.3    18  ILE18       0.0022
     25  CG2       25.4940  138.9780  -36.5070 C.3    18  ILE18       0.0022
     26  CD1       26.4400  139.0600  -33.4800 C.3    18  ILE18       0.0001
     27  N         19.1430  139.5620  -37.5390 N.3    20  GLN20      -0.1245
     28  CA        17.7250  139.1670  -37.4080 C.3    20  GLN20       0.1566
     29  C         16.9550  140.0580  -36.3940 C.2    20  GLN20       0.2260
     30  O         16.2860  139.5620  -35.4740 O.2    20  GLN20      -0.2867
     31  CB        17.6250  137.6810  -36.9990 C.3    20  GLN20       0.0367
     32  CG        18.6800  136.7930  -37.6530 C.3    20  GLN20       0.0905
     33  CD        18.4380  136.5640  -39.1600 C.2    20  GLN20       0.2608
     34  OE1       17.6280  137.2340  -39.7900 O.2    20  GLN20      -0.2717
     35  NE2       19.1500  135.6140  -39.7260 N.am   20  GLN20      -0.0878
     36  N         17.6880  127.4660  -43.1520 N.3    59  THR59      -0.1203
     37  CA        18.3880  126.8140  -42.0200 C.3    59  THR59       0.1994
     38  C         19.5330  127.5760  -41.3950 C.2    59  THR59       0.2618
     39  O         20.1820  128.4000  -42.0110 O.2    59  THR59      -0.2717
     40  CB        19.0380  125.4130  -42.3330 C.3    59  THR59       0.1784
     41  OG1       19.5310  125.3910  -43.6720 O.3    59  THR59      -0.2211
     42  CG2       18.0710  124.2500  -42.0590 C.3    59  THR59       0.0376
     43  N         19.7890  127.2200  -40.1500 N.am   60  GLY60      -0.1942
     44  CA        20.8600  127.8050  -39.3860 C.3    60  GLY60       0.2014
     45  C         21.0870  129.2960  -39.4780 C.2    60  GLY60       0.2639
     46  O         22.2600  129.7120  -39.5160 O.2    60  GLY60      -0.2714
     47  N         20.0360  130.1070  -39.5400 N.am   61  VAL61      -0.1963
     48  CA        20.2610  131.5470  -39.5840 C.3    61  VAL61       0.1727
     49  C         19.7660  132.2030  -38.3060 C.2    61  VAL61       0.2617
     50  O         19.6850  133.4200  -38.2170 O.2    61  VAL61      -0.2715
     51  CB        19.5930  132.2330  -40.7620 C.3    61  VAL61       0.0290
     52  CG1       19.9910  131.5720  -42.0220 C.3    61  VAL61       0.0023
     53  CG2       18.1120  132.2390  -40.5710 C.3    61  VAL61       0.0023
     54  N         19.4390  131.3790  -37.3120 N.am   62  GLY62      -0.1940
     55  CA        19.0140  131.9010  -36.0210 C.3    62  GLY62       0.2014
     56  C         17.5830  131.7330  -35.5380 C.2    62  GLY62       0.2639
     57  O         17.2520  132.2850  -34.4910 O.2    62  GLY62      -0.2714
     58  N         16.7250  131.0060  -36.2570 N.am   63  LYS63      -0.1963
     59  CA        15.3550  130.8600  -35.7980 C.3    63  LYS63       0.1728
     60  C         15.3380  130.2290  -34.3990 C.2    63  LYS63       0.2617
     61  O         15.0690  130.9080  -33.4040 O.2    63  LYS63      -0.2715
     62  CB        14.5440  130.0610  -36.8150 C.3    63  LYS63       0.0311
     63  CG        14.3970  130.8610  -38.0860 C.3    63  LYS63       0.0038
     64  CD        13.3890  130.3200  -39.1310 C.3    63  LYS63       0.0206
     65  CE        13.9000  129.0900  -39.7990 C.3    63  LYS63       0.1093
     66  NZ        15.3960  129.2770  -39.8940 N.3    63  LYS63      -0.1314
     67  N         15.6500  128.9460  -34.2980 N.am   64  THR64      -0.1937
     68  CA        15.6780  128.3020  -32.9950 C.3    64  THR64       0.2028
     69  C         16.4270  129.1030  -31.9290 C.2    64  THR64       0.2642
     70  O         15.8780  129.3100  -30.8520 O.2    64  THR64      -0.2714
     71  CB        16.3180  126.9410  -33.0870 C.3    64  THR64       0.1808
     72  OG1       15.8890  126.3170  -34.2980 O.3    64  THR64      -0.2208
     73  CG2       15.9190  126.0900  -31.8940 C.3    64  THR64       0.0379
     74  N         17.6560  129.5570  -32.2040 N.am   65  GLU65      -0.1976
     75  CA        18.4190  130.3020  -31.1830 C.3    65  GLU65       0.1602
     76  C         17.6610  131.4250  -30.5230 C.2    65  GLU65       0.2287
     77  O         17.6920  131.5810  -29.3030 O.2    65  GLU65      -0.2864
     78  CB        19.7100  130.8690  -31.7480 C.3    65  GLU65       0.0415
     79  CG        20.8900  129.9360  -31.5690 C.3    65  GLU65       0.1163
     80  CD        21.2320  129.6460  -30.0980 C.2    65  GLU65       0.3649
     81  OE1       21.3970  130.6170  -29.3180 O.co2  65  GLU65      -0.2457
     82  OE2       21.3510  128.4490  -29.7330 O.co2  65  GLU65      -0.2457
     83  N         15.2610  129.9620  -28.2280 N.3    68  ARG68      -0.1231
     84  CA        15.9370  129.3510  -27.1050 C.3    68  ARG68       0.1694
     85  C         16.3380  130.4120  -26.0930 C.2    68  ARG68       0.2591
     86  O         16.1030  130.2610  -24.8990 O.2    68  ARG68      -0.2718
     87  CB        17.1500  128.5900  -27.6260 C.3    68  ARG68       0.0321
     88  CG        17.1680  127.1830  -27.1660 C.3    68  ARG68       0.0489
     89  CD        17.7560  126.2490  -28.1830 C.3    68  ARG68       0.2205
     90  NE        17.2020  124.9110  -27.9640 N.pl3  68  ARG68      -0.0865
     91  CZ        17.1940  123.9380  -28.8760 C.cat  68  ARG68       0.5346
     92  NH1       17.7200  124.1550  -30.0940 N.pl3  68  ARG68       0.1354
     93  NH2       16.6530  122.7530  -28.5790 N.pl3  68  ARG68       0.1354
     94  N         16.9220  131.4970  -26.5900 N.am   69  ARG69      -0.1980
     95  CA        17.3650  132.5930  -25.7420 C.3    69  ARG69       0.1597
     96  C         16.2240  133.4210  -25.2260 C.2    69  ARG69       0.2287
     97  O         16.3520  134.0130  -24.1710 O.2    69  ARG69      -0.2864
     98  CB        18.3390  133.4870  -26.4860 C.3    69  ARG69       0.0334
     99  CG        19.4800  132.6870  -27.0450 C.3    69  ARG69       0.0492
    100  CD        20.4330  132.2180  -25.9840 C.3    69  ARG69       0.2205
    101  NE        21.5920  131.5500  -26.5720 N.pl3  69  ARG69      -0.0865
    102  CZ        22.6940  131.2210  -25.9000 C.cat  69  ARG69       0.5346
    103  NH1       22.7950  131.4980  -24.6070 N.pl3  69  ARG69       0.1354
    104  NH2       23.6950  130.6120  -26.5160 N.pl3  69  ARG69       0.1354
    105  N         11.3360  122.0090  -28.1030 N.3    80  LYS80      -0.1245
    106  CA        11.4440  122.1570  -29.5470 C.3    80  LYS80       0.1561
    107  C         11.0210  120.8540  -30.1850 C.2    80  LYS80       0.2260
    108  O         11.7160  119.8450  -30.0700 O.2    80  LYS80      -0.2867
    109  CB        12.8710  122.4580  -29.9770 C.3    80  LYS80       0.0271
    110  CG        13.0780  122.2920  -31.4740 C.3    80  LYS80       0.0035
    111  CD        14.5010  122.6380  -31.8760 C.3    80  LYS80       0.0206
    112  CE        14.6610  122.6570  -33.3910 C.3    80  LYS80       0.1093
    113  NZ        16.0540  123.0070  -33.7670 N.3    80  LYS80      -0.1314
    114  N          8.3440  125.5510  -29.5630 N.3   220  PHE220     -0.1241
    115  CA         8.8820  125.9310  -30.8600 C.3   220  PHE220      0.1605
    116  C          8.6020  124.7590  -31.7910 C.2   220  PHE220      0.2264
    117  O          9.1510  123.6850  -31.6130 O.2   220  PHE220     -0.2867
    118  CB        10.3740  126.1970  -30.7680 C.3   220  PHE220      0.0534
    119  CG        11.0170  126.5190  -32.0820 C.ar  220  PHE220     -0.0203
    120  CD1       11.5540  125.5060  -32.8770 C.ar  220  PHE220     -0.0042
    121  CD2       11.1060  127.8440  -32.5200 C.ar  220  PHE220     -0.0042
    122  CE1       12.1850  125.8160  -34.1000 C.ar  220  PHE220     -0.0003
    123  CE2       11.7180  128.1670  -33.7180 C.ar  220  PHE220     -0.0003
    124  CZ        12.2630  127.1510  -34.5160 C.ar  220  PHE220     -0.0000
    125  N          9.3200  123.4010  -35.1000 N.3   222  ASP222     -0.1239
    126  CA        10.1550  123.3810  -36.3110 C.3   222  ASP222      0.1674
    127  C          9.4930  122.7610  -37.5440 C.2   222  ASP222      0.2266
    128  O          8.5550  121.9530  -37.4440 O.2   222  ASP222     -0.2867
    129  CB        11.4510  122.6020  -36.0620 C.3   222  ASP222      0.1410
    130  CG        12.6220  123.1280  -36.8840 C.2   222  ASP222      0.3668
    131  OD1       13.5900  122.3650  -37.1180 O.co2 222  ASP222     -0.2456
    132  OD2       12.5850  124.3180  -37.2850 O.co2 222  ASP222     -0.2456
    133  N          8.1800  127.5020  -37.1150 N.3   273  SER273     -0.1217
    134  CA         9.2200  128.0210  -38.0180 C.3   273  SER273      0.1889
    135  C          9.2300  127.2270  -39.3260 C.2   273  SER273      0.2288
    136  O          8.7880  126.0870  -39.3480 O.2   273  SER273     -0.2866
    137  CB        10.6000  128.0150  -37.3520 C.3   273  SER273      0.2089
    138  OG        11.2660  126.8100  -37.5990 O.3   273  SER273     -0.2183
    139  N         22.2640  134.4920  -43.7920 N.3   301  LEU301     -0.1245
    140  CA        23.4350  135.1510  -43.2620 C.3   301  LEU301      0.1561
    141  C         24.4820  135.4710  -44.3380 C.2   301  LEU301      0.2260
    142  O         24.5580  134.8170  -45.3990 O.2   301  LEU301     -0.2867
    143  CB        24.0430  134.2660  -42.1760 C.3   301  LEU301      0.0270
    144  CG        23.2140  134.1390  -40.8970 C.3   301  LEU301      0.0019
    145  CD1       23.7430  132.9750  -40.0710 C.3   301  LEU301      0.0001
    146  CD2       23.2620  135.4450  -40.1090 C.3   301  LEU301      0.0001
    147  N         29.3840  136.4010  -35.9160 N.3   309  ILE309     -0.1245
    148  CA        28.9370  135.2670  -35.1480 C.3   309  ILE309      0.1561
    149  C         30.1540  134.5550  -34.5360 C.2   309  ILE309      0.2260
    150  O         30.0970  134.0480  -33.4190 O.2   309  ILE309     -0.2867
    151  CB        28.1480  134.3100  -36.0410 C.3   309  ILE309      0.0252
    152  CG1       26.8570  134.9770  -36.4770 C.3   309  ILE309      0.0019
    153  CG2       27.8810  132.9920  -35.3070 C.3   309  ILE309      0.0019
    154  CD1       26.0450  134.1070  -37.3450 C.3   309  ILE309      0.0001
    155  N         29.0740  137.1870  -30.1470 N.3   313  PRO313     -0.2116
    156  CA        28.2020  136.6400  -29.1140 C.3   313  PRO313      0.1372
    157  C         28.9870  136.3400  -27.8620 C.2   313  PRO313      0.2244
    158  O         30.2100  136.2030  -27.8920 O.2   313  PRO313     -0.2868
    159  CB        27.6560  135.3930  -29.7630 C.3   313  PRO313      0.0268
    160  CG        27.5700  135.8060  -31.2270 C.3   313  PRO313      0.0207
    161  CD        28.9030  136.4730  -31.4250 C.3   313  PRO313      0.0892
    162  N         25.0360  129.1220  -40.3050 N.3   358  ALA358     -0.1231
    163  CA        26.1250  129.2830  -39.3400 C.3   358  ALA358      0.1694
    164  C         26.6470  127.9330  -38.8900 C.2   358  ALA358      0.2591
    165  O         27.7930  127.7910  -38.4460 O.2   358  ALA358     -0.2718
    166  CB        25.6420  130.0520  -38.1620 C.3   358  ALA358      0.0304
    167  N         25.7900  126.9330  -38.9890 N.am  359  ARG359     -0.1980
    168  CA        26.1830  125.5940  -38.6390 C.3   359  ARG359      0.1597
    169  C         27.5560  125.2540  -39.2630 C.2   359  ARG359      0.2287
    170  O         28.4090  124.6540  -38.5860 O.2   359  ARG359     -0.2864
    171  CB        25.1070  124.6000  -39.1000 C.3   359  ARG359      0.0334
    172  CG        23.9790  124.4520  -38.0730 C.3   359  ARG359      0.0492
    173  CD        23.0640  123.3070  -38.4240 C.3   359  ARG359      0.2205
    174  NE        21.8630  123.7910  -39.0790 N.pl3 359  ARG359     -0.0865
    175  CZ        20.7630  124.1200  -38.4180 C.cat 359  ARG359      0.5346
    176  NH1       20.7290  123.9930  -37.0910 N.pl3 359  ARG359      0.1354
    177  NH2       19.7170  124.6160  -39.0790 N.pl3 359  ARG359      0.1354
    178  N         30.8350  125.9030  -37.2780 N.3   362  HIS362     -0.1241
    179  CA        31.2860  124.9630  -36.2470 C.3   362  HIS362      0.1621
    180  C         32.1590  123.8460  -36.8070 C.2   362  HIS362      0.2264
    181  O         33.2110  123.5220  -36.2380 O.2   362  HIS362     -0.2867
    182  CB        30.1070  124.3540  -35.4750 C.3   362  HIS362      0.0745
    183  CG        29.0770  125.3550  -35.0550 C.ar  362  HIS362      0.0817
    184  ND1       29.4020  126.6330  -34.6520 N.ar  362  HIS362     -0.2268
    185  CD2       27.7270  125.2640  -34.9650 C.ar  362  HIS362      0.1154
    186  CE1       28.2990  127.2890  -34.3310 C.ar  362  HIS362      0.1986
    187  NE2       27.2690  126.4800  -34.5100 N.ar  362  HIS362     -0.2212
@<TRIPOS>BOND
     1   142   141    2
     2   141   140    1
     3   139   140    1
     4    41    40    1
     5   140   143    1
     6    36    37    1
     7    40    42    1
     8    40    37    1
     9   143   144    1
    10    52    51    1
    11    37    38    1
    12    39    38    2
    13    38    43   am
    14   144   146    1
    15   144   145    1
    16    51    53    1
    17    51    48    1
    18   162   163    1
    19    43    44    1
    20    66    65    1
    21    65    64    1
    22    34    33    2
    23    35    33   am
    24    48    47    1
    25    48    49    1
    26    47    45   am
    27    46    45    2
    28    45    44    1
    29   136   135    2
    30   163   164    1
    31   163   166    1
    32   135   134    1
    33   169   168    1
    34   169   170    2
    35    33    32    1
    36    64    63    1
    37   171   168    1
    38   171   172    1
    39   177   175    1
    40   174   173    1
    41   174   175    2
    42   167   164   am
    43   167   168    1
    44   164   165    2
    45   173   172    1
    46   175   176    1
    47    49    50    2
    48    49    54   am
    49    63    62    1
    50   134   137    1
    51   134   133    1
    52    32    31    1
    53   138   137    1
    54   127   128    2
    55   127   126    1
    56    27    28    1
    57    28    31    1
    58    28    29    1
    59   154   152    1
    60    54    55    1
    61   132   130   ar
    62   178   179    1
    63   131   130   ar
    64   130   129    1
    65    62    59    1
    66   180   179    1
    67   180   181    2
    68    25    23    1
    69    22    21    2
    70   152   151    1
    71    29    30    2
    72   126   129    1
    73   126   125    1
    74    58    59    1
    75    58    56   am
    76   179   182    1
    77   151   153    1
    78   151   148    1
    79    55    56    1
    80   147   148    1
    81    59    60    1
    82    21    20    1
    83    56    57    2
    84   182   183    1
    85    23    20    1
    86    23    24    1
    87   148   149    1
    88   183   185   ar
    89   183   184   ar
    90   185   187   ar
    91   184   186   ar
    92    20    19    1
    93   149   150    2
    94   124   122   ar
    95   124   123   ar
    96   187   186   ar
    97    24    26    1
    98    60    67   am
    99    60    61    2
   100    72    71    1
   101    67    68    1
   102   122   120   ar
   103    19    13   am
   104   113   112    1
   105   123   121   ar
   106    17    15    1
   107   112   111    1
   108    71    68    1
   109    71    73    1
   110    68    69    1
   111   120   119   ar
   112    13    14    2
   113    13    12    1
   114   121   119   ar
   115    74    69   am
   116    74    75    1
   117    15    12    1
   118    15    16    1
   119   119   118    1
   120    69    70    2
   121    12    11    1
   122   111   110    1
   123   116   117    2
   124   116   115    1
   125    78    79    1
   126    78    75    1
   127    79    80    1
   128   110   109    1
   129    16    18    1
   130   161   160    1
   131   161   155    1
   132   160   159    1
   133    75    76    1
   134   115   118    1
   135   115   114    1
   136    76    77    2
   137    11     3   am
   138     4     3    2
   139   107   108    2
   140   107   106    1
   141   155   156    1
   142    80    82   ar
   143    80    81   ar
   144    92    91    1
   145   109   106    1
   146     3     2    1
   147   159   156    1
   148   106   105    1
   149   156   157    1
   150    91    93    1
   151    91    90    2
   152     2     1    1
   153     2     5    1
   154    83    84    1
   155    89    90    1
   156    89    88    1
   157   158   157    2
   158    87    88    1
   159    87    84    1
   160     5     6    1
   161    84    85    1
   162    99    98    1
   163    99   100    1
   164    94    85   am
   165    94    95    1
   166   101   100    1
   167   101   102    2
   168   104   102    1
   169    98    95    1
   170     6     7   ar
   171     6     8   ar
   172    85    86    2
   173   102   103    1
   174    95    96    1
   175     7     9   ar
   176    96    97    2
   177     8    10   ar
   178     9    10   ar
