@<TRIPOS>MOLECULE
tmp/1e9aA00.pdb
 142 135 0 0 0
SMALL
GASTEIGER

@<TRIPOS>ATOM
      1  N          7.4750   75.6760   33.5330 N.3    12  ASP12      -0.1225
      2  CA         8.5580   74.7460   33.7860 C.3    12  ASP12       0.1805
      3  C          8.0980   73.5000   34.5280 C.2    12  ASP12       0.2598
      4  O          7.3310   73.5810   35.4850 O.2    12  ASP12      -0.2718
      5  CB         9.6920   75.4550   34.5350 C.3    12  ASP12       0.1424
      6  CG        10.9890   74.6870   34.3340 C.2    12  ASP12       0.3668
      7  OD1       11.4650   74.6410   33.1780 O.co2  12  ASP12      -0.2456
      8  OD2       11.4890   74.1380   35.3330 O.co2  12  ASP12      -0.2456
      9  N          8.5650   72.3600   34.0320 N.am   13  ARG13      -0.1966
     10  CA         8.1930   71.0670   34.5880 C.3    13  ARG13       0.1729
     11  C          6.6770   70.9670   34.6010 C.2    13  ARG13       0.2616
     12  O          6.1040   70.3440   35.4830 O.2    13  ARG13      -0.2715
     13  CB         8.7890   70.8710   35.9830 C.3    13  ARG13       0.0348
     14  CG        10.3140   70.7970   35.8950 C.3    13  ARG13       0.0492
     15  CD        10.9230   70.9130   37.2850 C.3    13  ARG13       0.2205
     16  NE        11.9710   71.9390   37.2640 N.pl3  13  ARG13      -0.0865
     17  CZ        12.0210   72.8520   38.2320 C.cat  13  ARG13       0.5346
     18  NH1       11.1150   72.8270   39.2020 N.pl3  13  ARG13       0.1354
     19  NH2       12.9490   73.7960   38.2380 N.pl3  13  ARG13       0.1354
     20  N          6.0700   71.6390   33.5950 N.am   14  ALA14      -0.1963
     21  CA         4.6240   71.5820   33.5750 C.3    14  ALA14       0.1728
     22  C          4.1160   70.2490   33.0370 C.2    14  ALA14       0.2617
     23  O          3.0060   69.8160   33.3180 O.2    14  ALA14      -0.2715
     24  CB         4.1420   72.7300   32.6940 C.3    14  ALA14       0.0334
     25  N          5.0010   69.5500   32.3230 N.am   15  GLY15      -0.1940
     26  CA         4.5910   68.2760   31.7360 C.3    15  GLY15       0.2014
     27  C          4.3850   68.3050   30.2310 C.2    15  GLY15       0.2639
     28  O          3.7610   67.3900   29.6620 O.2    15  GLY15      -0.2714
     29  N          4.9530   69.2600   29.4960 N.am   16  LYS16      -0.1963
     30  CA         4.7880   69.3190   28.0470 C.3    16  LYS16       0.1728
     31  C          5.2600   68.0580   27.3450 C.2    16  LYS16       0.2617
     32  O          4.5690   67.5430   26.4530 O.2    16  LYS16      -0.2715
     33  CB         5.5800   70.5060   27.4350 C.3    16  LYS16       0.0311
     34  CG         5.1000   71.8390   28.0390 C.3    16  LYS16       0.0038
     35  CD         5.9640   72.9900   27.5130 C.3    16  LYS16       0.0206
     36  CE         7.4020   72.9230   28.0260 C.3    16  LYS16       0.1093
     37  NZ         7.4910   73.1120   29.5020 N.3    16  LYS16      -0.1314
     38  N          6.4730   67.5730   27.6630 N.am   17  SER17      -0.1936
     39  CA         7.0020   66.4270   26.9360 C.3    17  SER17       0.2055
     40  C          6.2320   65.1360   27.2730 C.2    17  SER17       0.2644
     41  O          5.8840   64.3510   26.3980 O.2    17  SER17      -0.2714
     42  CB         8.5110   66.1900   27.1450 C.3    17  SER17       0.2130
     43  OG         9.1550   67.4420   26.7880 O.3    17  SER17      -0.2179
     44  N          5.9520   64.9850   28.5770 N.am   18  THR18      -0.1936
     45  CA         5.1550   63.8050   28.9550 C.3    18  THR18       0.2028
     46  C          3.8060   63.7970   28.2490 C.2    18  THR18       0.2642
     47  O          3.3440   62.7750   27.7250 O.2    18  THR18      -0.2714
     48  CB         4.9460   63.8090   30.4830 C.3    18  THR18       0.1808
     49  OG1        6.1870   63.7070   31.1800 O.3    18  THR18      -0.2208
     50  CG2        4.0490   62.6540   30.9170 C.3    18  THR18       0.0379
     51  N          3.0930   64.9260   28.2740 N.am   19  GLN19      -0.1976
     52  CA         1.7730   64.9800   27.6410 C.3    19  GLN19       0.1601
     53  C          1.8200   64.9340   26.1210 C.2    19  GLN19       0.2287
     54  O          0.8940   64.3490   25.5190 O.2    19  GLN19      -0.2864
     55  CB         0.9960   66.2190   28.1490 C.3    19  GLN19       0.0394
     56  CG         0.7760   66.1870   29.6560 C.3    19  GLN19       0.0908
     57  CD        -0.0610   65.0300   30.1470 C.2    19  GLN19       0.2608
     58  OE1       -0.8150   64.4390   29.3870 O.2    19  GLN19      -0.2717
     59  NE2        0.0120   64.6850   31.4390 N.am   19  GLN19      -0.0878
     60  N          4.0060   63.1630   24.3620 N.3    21  ARG21      -0.1245
     61  CA         4.1940   61.7500   24.0400 C.3    21  ARG21       0.1563
     62  C          2.9120   60.9520   24.2610 C.2    21  ARG21       0.2260
     63  O          2.5370   60.1600   23.3950 O.2    21  ARG21      -0.2867
     64  CB         5.2710   61.1070   24.9430 C.3    21  ARG21       0.0307
     65  CG         6.6930   61.6640   24.7150 C.3    21  ARG21       0.0489
     66  CD         7.6740   60.7740   25.5050 C.3    21  ARG21       0.2205
     67  NE         7.4950   60.9030   26.9360 N.pl3  21  ARG21      -0.0865
     68  CZ         8.1030   61.7700   27.7640 C.cat  21  ARG21       0.5346
     69  NH1        8.9440   62.7100   27.3480 N.pl3  21  ARG21       0.1354
     70  NH2        7.7950   61.6750   29.0520 N.pl3  21  ARG21       0.1354
     71  N          6.4980   72.5980   22.3760 N.3    94  ARG94      -0.1245
     72  CA         7.0290   73.9540   22.2860 C.3    94  ARG94       0.1563
     73  C          7.0130   74.4370   20.8210 C.2    94  ARG94       0.2260
     74  O          7.2500   73.6760   19.8980 O.2    94  ARG94      -0.2867
     75  CB         8.4050   74.1920   22.8910 C.3    94  ARG94       0.0307
     76  CG         8.5480   73.9090   24.3940 C.3    94  ARG94       0.0489
     77  CD         9.9010   74.5300   24.7950 C.3    94  ARG94       0.2205
     78  NE        10.2820   74.2330   26.1730 N.pl3  94  ARG94      -0.0865
     79  CZ         9.9510   75.0140   27.2050 C.cat  94  ARG94       0.5346
     80  NH1        9.1940   76.1050   27.1350 N.pl3  94  ARG94       0.1354
     81  NH2       10.3870   74.5730   28.3910 N.pl3  94  ARG94       0.1354
     82  N          8.4870   68.9030   41.6580 N.3   140  ARG140     -0.1245
     83  CA         8.8070   68.0670   40.5170 C.3   140  ARG140      0.1563
     84  C         10.2570   68.1430   40.0470 C.2   140  ARG140      0.2260
     85  O         10.5400   68.3690   38.8690 O.2   140  ARG140     -0.2867
     86  CB         7.9980   68.4270   39.2610 C.3   140  ARG140      0.0307
     87  CG         6.5310   68.0670   39.3840 C.3   140  ARG140      0.0489
     88  CD         5.8200   68.6160   38.1360 C.3   140  ARG140      0.2205
     89  NE         4.3990   68.5300   38.3940 N.pl3 140  ARG140     -0.0865
     90  CZ         3.4290   68.6340   37.4920 C.cat 140  ARG140      0.5346
     91  NH1        3.7380   68.8310   36.2210 N.pl3 140  ARG140      0.1354
     92  NH2        2.1860   68.5260   37.9110 N.pl3 140  ARG140      0.1354
     93  N         17.0090   77.9430   33.5440 N.3   149  GLU149     -0.1245
     94  CA        16.4190   77.1530   34.6180 C.3   149  GLU149      0.1567
     95  C         16.6380   77.7300   36.0110 C.2   149  GLU149      0.2260
     96  O         17.3250   77.1670   36.8610 O.2   149  GLU149     -0.2867
     97  CB        16.9610   75.7220   34.5540 C.3   149  GLU149      0.0388
     98  CG        16.6070   75.0520   33.2290 C.3   149  GLU149      0.1160
     99  CD        16.5190   73.5490   33.4020 C.2   149  GLU149      0.3649
    100  OE1       16.6600   73.1050   34.5630 O.co2 149  GLU149     -0.2457
    101  OE2       16.2950   72.8460   32.4030 O.co2 149  GLU149     -0.2457
    102  N         -2.4200   71.6950   34.8400 N.3   177  ALA177     -0.1231
    103  CA        -1.3720   70.6700   34.8570 C.3   177  ALA177      0.1694
    104  C         -0.9630   70.1930   36.2340 C.2   177  ALA177      0.2593
    105  O         -0.0370   69.3900   36.3330 O.2   177  ALA177     -0.2718
    106  CB        -0.1980   71.2540   34.0610 C.3   177  ALA177      0.0304
    107  N         -1.6500   70.6480   37.2870 N.am  178  SER178     -0.1938
    108  CA        -1.3620   70.2130   38.6490 C.3   178  SER178      0.2055
    109  C         -1.9480   68.8500   38.9540 C.2   178  SER178      0.2643
    110  O         -1.5670   68.2140   39.9580 O.2   178  SER178     -0.2714
    111  CB        -1.9070   71.2120   39.6920 C.3   178  SER178      0.2130
    112  OG        -3.3220   71.1650   39.7460 O.3   178  SER178     -0.2179
    113  N         -2.8500   68.3540   38.1060 N.am  179  LYS179     -0.1963
    114  CA        -3.4780   67.0520   38.3350 C.3   179  LYS179      0.1728
    115  C         -2.5270   65.8910   38.0330 C.2   179  LYS179      0.2617
    116  O         -1.3830   66.1500   37.6960 O.2   179  LYS179     -0.2715
    117  CB        -4.7810   66.9410   37.5380 C.3   179  LYS179      0.0311
    118  CG        -5.7290   68.0990   37.8850 C.3   179  LYS179      0.0038
    119  CD        -7.1220   67.8770   37.3300 C.3   179  LYS179      0.0206
    120  CE        -7.2570   68.1140   35.8420 C.3   179  LYS179      0.1093
    121  NZ        -8.7010   68.1750   35.4220 N.3   179  LYS179     -0.1314
    122  N         -3.0110   64.6600   38.1420 N.am  180  SER180     -0.1936
    123  CA        -2.1340   63.5120   37.8840 C.3   180  SER180      0.2055
    124  C         -1.7740   63.4670   36.3950 C.2   180  SER180      0.2642
    125  O         -2.4710   64.0770   35.5750 O.2   180  SER180     -0.2714
    126  CB        -2.8440   62.2160   38.2740 C.3   180  SER180      0.2130
    127  OG        -3.9350   61.9360   37.4010 O.3   180  SER180     -0.2179
    128  N         -0.7500   62.7080   36.0580 N.am  181  ILE181     -0.1977
    129  CA        -0.4120   62.5460   34.6380 C.3   181  ILE181      0.1596
    130  C         -1.5950   62.0560   33.8240 C.2   181  ILE181      0.2287
    131  O         -1.8860   62.6300   32.7610 O.2   181  ILE181     -0.2864
    132  CB         0.8080   61.6050   34.5040 C.3   181  ILE181      0.0276
    133  CG1        2.0600   62.3280   35.0120 C.3   181  ILE181      0.0022
    134  CG2        0.9720   61.1440   33.0650 C.3   181  ILE181      0.0022
    135  CD1        3.2900   61.4260   34.8950 C.3   181  ILE181      0.0001
    136  N         -4.4730   64.8300   33.5760 N.3   184  VAL184     -0.1245
    137  CA        -4.0990   65.9180   32.6580 C.3   184  VAL184      0.1561
    138  C         -4.2060   65.4170   31.2240 C.2   184  VAL184      0.2260
    139  O         -4.6830   66.1170   30.3370 O.2   184  VAL184     -0.2867
    140  CB        -2.6660   66.3910   32.9390 C.3   184  VAL184      0.0252
    141  CG1       -2.1700   67.4220   31.9110 C.3   184  VAL184      0.0019
    142  CG2       -2.6100   66.9970   34.3400 C.3   184  VAL184      0.0019
@<TRIPOS>BOND
     1    74    73    2
     2    73    72    1
     3    72    71    1
     4    72    75    1
     5    75    76    1
     6    63    62    2
     7    61    62    1
     8    61    60    1
     9    61    64    1
    10    76    77    1
    11    65    64    1
    12    65    66    1
    13    77    78    1
    14    66    67    1
    15    54    53    2
    16    53    52    1
    17    78    79    2
    18    41    40    2
    19    32    31    2
    20    43    42    1
    21    67    68    2
    22    39    42    1
    23    39    40    1
    24    39    38    1
    25    80    79    1
    26    79    81    1
    27    40    44   am
    28    31    38   am
    29    31    30    1
    30    69    68    1
    31    33    34    1
    32    33    30    1
    33    35    36    1
    34    35    34    1
    35    52    55    1
    36    52    51    1
    37    47    46    2
    38    68    70    1
    39    36    37    1
    40    30    29    1
    41    55    56    1
    42    46    51   am
    43    46    45    1
    44    44    45    1
    45    45    48    1
    46    58    57    2
    47    29    27   am
    48    56    57    1
    49    28    27    2
    50    57    59   am
    51    27    26    1
    52   139   138    2
    53    48    50    1
    54    48    49    1
    55   138   137    1
    56    26    25    1
    57   141   140    1
    58    25    22   am
    59   101    99   ar
    60   137   140    1
    61   137   136    1
    62    24    21    1
    63   131   130    2
    64   140   142    1
    65    22    23    2
    66    22    21    1
    67   134   132    1
    68     7     6   ar
    69    98    99    1
    70    98    97    1
    71    99   100   ar
    72     1     2    1
    73    93    94    1
    74    21    20    1
    75    20    11   am
    76     2     3    1
    77     2     5    1
    78   130   129    1
    79     9     3   am
    80     9    10    1
    81   106   103    1
    82     6     5    1
    83     6     8   ar
    84   132   129    1
    85   132   133    1
    86     3     4    2
    87    97    94    1
    88    10    11    1
    89    10    13    1
    90    11    12    2
    91    94    95    1
    92   129   128    1
    93   102   103    1
    94   103   104    1
    95   135   133    1
    96   121   120    1
    97   125   124    2
    98   120   119    1
    99    14    13    1
   100    14    15    1
   101    95    96    2
   102   128   124   am
   103    91    90    1
   104   104   105    2
   105   104   107   am
   106   124   123    1
   107    16    15    1
   108    16    17    2
   109   107   108    1
   110   119   118    1
   111   127   126    1
   112    90    92    1
   113    90    89    2
   114   117   118    1
   115   117   114    1
   116   116   115    2
   117   123   122    1
   118   123   126    1
   119   115   122   am
   120   115   114    1
   121   113   114    1
   122   113   109   am
   123    88    89    1
   124    88    87    1
   125    17    19    1
   126    17    18    1
   127   108   109    1
   128   108   111    1
   129    85    84    2
   130   109   110    2
   131    86    87    1
   132    86    83    1
   133   111   112    1
   134    84    83    1
   135    83    82    1
