@<TRIPOS>MOLECULE
tmp/1e9bA00.pdb
 191 185 0 0 0
SMALL
GASTEIGER

@<TRIPOS>ATOM
      1  N          7.2890   74.6390   33.6980 N.3    12  ASP12      -0.1239
      2  CA         8.3640   73.6940   33.9790 C.3    12  ASP12       0.1674
      3  C          7.8350   72.4620   34.6810 C.2    12  ASP12       0.2266
      4  O          7.0850   72.6000   35.6380 O.2    12  ASP12      -0.2867
      5  CB         9.4640   74.3660   34.8150 C.3    12  ASP12       0.1410
      6  CG        10.7410   73.5430   34.6450 C.2    12  ASP12       0.3668
      7  OD1       11.1330   73.3260   33.4820 O.co2  12  ASP12      -0.2456
      8  OD2       11.3190   73.1220   35.6560 O.co2  12  ASP12      -0.2456
      9  N          4.7250   68.3830   29.7040 N.3    16  LYS16      -0.1231
     10  CA         4.5770   68.4760   28.2490 C.3    16  LYS16       0.1693
     11  C          5.0480   67.2190   27.5350 C.2    16  LYS16       0.2592
     12  O          4.3760   66.7150   26.6290 O.2    16  LYS16      -0.2718
     13  CB         5.3960   69.6400   27.6390 C.3    16  LYS16       0.0285
     14  CG         4.8990   70.9540   28.2940 C.3    16  LYS16       0.0035
     15  CD         5.7790   72.0920   27.8040 C.3    16  LYS16       0.0206
     16  CE         7.1660   72.0770   28.4460 C.3    16  LYS16       0.1093
     17  NZ         7.1270   72.1320   29.9400 N.3    16  LYS16      -0.1314
     18  N          6.2040   66.7460   27.9500 N.am   17  SER17      -0.1952
     19  CA         6.8020   65.6230   27.1980 C.3    17  SER17       0.1924
     20  C          6.0490   64.3350   27.5140 C.2    17  SER17       0.2314
     21  O          5.7360   63.6270   26.5590 O.2    17  SER17      -0.2863
     22  CB         8.2820   65.5060   27.4680 C.3    17  SER17       0.2116
     23  OG         8.9170   66.7190   27.0890 O.3    17  SER17      -0.2180
     24  N         10.1550   70.5590   19.7250 N.3    39  PHE39      -0.1228
     25  CA        11.1280   71.6350   19.4310 C.3    39  PHE39       0.1721
     26  C         11.7610   71.9950   20.7580 C.2    39  PHE39       0.2437
     27  O         11.1120   72.0380   21.8260 O.2    39  PHE39      -0.2733
     28  CB        10.3820   72.7950   18.7410 C.3    39  PHE39       0.0547
     29  CG         9.9910   72.4210   17.3380 C.ar   39  PHE39      -0.0202
     30  CD1       10.9300   72.3620   16.3130 C.ar   39  PHE39      -0.0042
     31  CD2        8.6600   72.1390   17.0680 C.ar   39  PHE39      -0.0042
     32  CE1       10.5630   72.0010   15.0220 C.ar   39  PHE39      -0.0003
     33  CE2        8.2970   71.8110   15.7630 C.ar   39  PHE39      -0.0003
     34  CZ         9.2310   71.7190   14.7420 C.ar   39  PHE39      -0.0000
     35  N         13.0580   72.2550   20.7880 N.am   40  PRO40      -0.2729
     36  CA        13.9020   72.1640   19.6080 C.3    40  PRO40       0.1401
     37  C         14.0620   70.7430   19.1330 C.2    40  PRO40       0.2269
     38  O         14.0720   69.8090   19.9730 O.2    40  PRO40      -0.2865
     39  CB        15.2720   72.6550   20.1200 C.3    40  PRO40       0.0296
     40  CG        15.2230   72.4230   21.5810 C.3    40  PRO40       0.0237
     41  CD        13.8030   72.6400   22.0060 C.3    40  PRO40       0.0939
     42  N         16.6020   68.5440   18.1380 N.3    42  ARG42      -0.1245
     43  CA        18.0720   68.6270   18.2880 C.3    42  ARG42       0.1563
     44  C         18.8920   67.8150   17.3310 C.2    42  ARG42       0.2260
     45  O         20.1370   67.8970   17.4060 O.2    42  ARG42      -0.2867
     46  CB        18.4130   68.2220   19.7350 C.3    42  ARG42       0.0307
     47  CG        17.7320   69.1210   20.7620 C.3    42  ARG42       0.0489
     48  CD        18.1380   68.6690   22.1670 C.3    42  ARG42       0.2205
     49  NE        17.2960   69.3280   23.1670 N.pl3  42  ARG42      -0.0865
     50  CZ        17.8810   69.7510   24.3040 C.cat  42  ARG42       0.5346
     51  NH1       19.1730   69.5820   24.5250 N.pl3  42  ARG42       0.1354
     52  NH2       17.1660   70.3350   25.2390 N.pl3  42  ARG42       0.1354
     53  N         21.8170   74.9590   25.1730 N.3    54  LEU54      -0.1245
     54  CA        20.9550   74.6660   26.3150 C.3    54  LEU54       0.1561
     55  C         21.6980   73.8880   27.4020 C.2    54  LEU54       0.2260
     56  O         21.3440   74.0210   28.5750 O.2    54  LEU54      -0.2867
     57  CB        19.7440   73.8580   25.8300 C.3    54  LEU54       0.0270
     58  CG        18.7470   74.7150   25.0300 C.3    54  LEU54       0.0019
     59  CD1       17.6790   73.8030   24.4150 C.3    54  LEU54       0.0001
     60  CD2       18.1330   75.7780   25.9170 C.3    54  LEU54       0.0001
     61  N         16.4290   79.0410   16.9990 N.3    69  PHE69      -0.1241
     62  CA        15.2400   78.2860   17.4660 C.3    69  PHE69       0.1605
     63  C         14.1270   78.3920   16.4360 C.2    69  PHE69       0.2264
     64  O         13.4510   77.4050   16.1330 O.2    69  PHE69      -0.2867
     65  CB        14.7910   78.8230   18.8280 C.3    69  PHE69       0.0534
     66  CG        15.4000   78.2200   20.0550 C.ar   69  PHE69      -0.0203
     67  CD1       15.1660   76.8790   20.3710 C.ar   69  PHE69      -0.0042
     68  CD2       16.1900   79.0000   20.9190 C.ar   69  PHE69      -0.0042
     69  CE1       15.7110   76.3280   21.5210 C.ar   69  PHE69      -0.0003
     70  CE2       16.7420   78.4360   22.0610 C.ar   69  PHE69      -0.0003
     71  CZ        16.4810   77.0990   22.3750 C.ar   69  PHE69      -0.0000
     72  N         12.3550   75.4240   13.5760 N.3    73  ARG73      -0.1245
     73  CA        10.9740   75.1260   13.2120 C.3    73  ARG73       0.1563
     74  C         10.7900   75.1900   11.6990 C.2    73  ARG73       0.2260
     75  O         10.2040   74.2710   11.1280 O.2    73  ARG73      -0.2867
     76  CB         9.9540   76.0190   13.9240 C.3    73  ARG73       0.0307
     77  CG         9.8510   75.6150   15.4090 C.3    73  ARG73       0.0489
     78  CD         8.9440   76.6690   16.0400 C.3    73  ARG73       0.2205
     79  NE         9.5250   77.9850   16.3460 N.pl3  73  ARG73      -0.0865
     80  CZ        10.3430   78.2100   17.3770 C.cat  73  ARG73       0.5346
     81  NH1       10.7940   77.2440   18.1820 N.pl3  73  ARG73       0.1354
     82  NH2       10.7340   79.4760   17.6040 N.pl3  73  ARG73       0.1354
     83  N          5.6720   68.8940   21.0000 N.3    93  ASP93      -0.1225
     84  CA         6.1350   69.2530   22.3370 C.3    93  ASP93       0.1805
     85  C          6.9410   70.5480   22.2230 C.2    93  ASP93       0.2598
     86  O          8.0990   70.4290   21.8390 O.2    93  ASP93      -0.2718
     87  CB         6.9350   68.0750   22.8630 C.3    93  ASP93       0.1424
     88  CG         7.4970   68.1580   24.2600 C.2    93  ASP93       0.3668
     89  OD1        7.3220   69.1820   24.9620 O.co2  93  ASP93      -0.2456
     90  OD2        8.2100   67.1810   24.6240 O.co2  93  ASP93      -0.2456
     91  N          6.2870   71.6490   22.5780 N.am   94  ARG94      -0.1966
     92  CA         6.7780   73.0010   22.4390 C.3    94  ARG94       0.1729
     93  C          6.7730   73.4740   20.9770 C.2    94  ARG94       0.2616
     94  O          7.0300   72.7240   20.0110 O.2    94  ARG94      -0.2715
     95  CB         8.1940   73.2650   22.9740 C.3    94  ARG94       0.0348
     96  CG         8.3020   72.9510   24.4670 C.3    94  ARG94       0.0492
     97  CD         9.7010   73.5030   24.8490 C.3    94  ARG94       0.2205
     98  NE        10.1010   73.1940   26.2030 N.pl3  94  ARG94      -0.0865
     99  CZ         9.7930   73.9810   27.2380 C.cat  94  ARG94       0.5346
    100  NH1        9.0640   75.0640   27.1310 N.pl3  94  ARG94       0.1354
    101  NH2       10.2320   73.5960   28.4430 N.pl3  94  ARG94       0.1354
    102  N          6.5440   74.7790   20.8210 N.am   95  TYR95      -0.1974
    103  CA         6.5520   75.3300   19.4550 C.3    95  TYR95       0.1639
    104  C          6.9780   76.8010   19.5220 C.2    95  TYR95       0.2290
    105  O          7.7690   77.1440   20.3870 O.2    95  TYR95      -0.2864
    106  CB         5.2110   75.1640   18.7890 C.3    95  TYR95       0.0560
    107  CG         4.9870   75.3030   17.2990 C.ar   95  TYR95      -0.0198
    108  CD1        5.6750   74.5220   16.3790 C.ar   95  TYR95      -0.0009
    109  CD2        4.0120   76.1860   16.8090 C.ar   95  TYR95      -0.0009
    110  CE1        5.4560   74.5950   15.0200 C.ar   95  TYR95       0.0417
    111  CE2        3.7660   76.2530   15.4330 C.ar   95  TYR95       0.0417
    112  CZ         4.4990   75.4710   14.5550 C.ar   95  TYR95       0.1957
    113  OH         4.2330   75.5250   13.2050 O.3    95  TYR95      -0.2866
    114  N          6.9630   78.7420   23.0630 N.3    98  SER98      -0.1202
    115  CA         8.1410   78.6600   23.9340 C.3    98  SER98       0.2020
    116  C          9.2600   79.5380   23.3370 C.2    98  SER98       0.2619
    117  O         10.0010   80.1400   24.0960 O.2    98  SER98      -0.2717
    118  CB         8.6620   77.2280   24.0080 C.3    98  SER98       0.2103
    119  OG         7.9390   76.4120   24.9170 O.3    98  SER98      -0.2182
    120  N          9.3230   79.5730   22.0170 N.am   99  GLY99      -0.1956
    121  CA        10.3700   80.4060   21.3610 C.3    99  GLY99       0.1869
    122  C         10.2470   81.8480   21.8510 C.2    99  GLY99       0.2309
    123  O         11.2370   82.5010   22.1810 O.2    99  GLY99      -0.2863
    124  N         10.6090   82.2370   26.0990 N.3   102  PHE102     -0.1227
    125  CA        11.9240   82.1280   26.6930 C.3   102  PHE102      0.1736
    126  C         12.8080   83.2850   26.2540 C.2   102  PHE102      0.2596
    127  O         13.5060   83.8070   27.1390 O.2   102  PHE102     -0.2718
    128  CB        12.4900   80.7440   26.3440 C.3   102  PHE102      0.0547
    129  CG        11.8530   79.7810   27.3400 C.ar  102  PHE102     -0.0202
    130  CD1       10.5990   79.2480   27.1140 C.ar  102  PHE102     -0.0042
    131  CD2       12.5230   79.4890   28.5160 C.ar  102  PHE102     -0.0042
    132  CE1       10.0280   78.3900   28.0540 C.ar  102  PHE102     -0.0003
    133  CE2       11.9550   78.6400   29.4490 C.ar  102  PHE102     -0.0003
    134  CZ        10.7040   78.0990   29.2190 C.ar  102  PHE102     -0.0000
    135  N         12.8000   83.6330   24.9590 N.am  103  THR103     -0.1953
    136  CA        13.6720   84.7950   24.6370 C.3   103  THR103      0.1897
    137  C         13.0690   86.0490   25.2620 C.2   103  THR103      0.2313
    138  O         13.7760   86.9390   25.7720 O.2   103  THR103     -0.2863
    139  CB        13.8420   84.9490   23.1060 C.3   103  THR103      0.1794
    140  OG1       14.5990   83.8020   22.6760 O.3   103  THR103     -0.2208
    141  CG2       14.5740   86.2180   22.7060 C.3   103  THR103      0.0378
    142  N         20.1990   72.4270   32.8080 N.3   146  GLU146     -0.1231
    143  CA        20.2130   73.1720   31.5560 C.3   146  GLU146      0.1699
    144  C         19.9610   74.6610   31.7640 C.2   146  GLU146      0.2592
    145  O         19.5410   75.1560   32.8070 O.2   146  GLU146     -0.2718
    146  CB        19.2570   72.5820   30.5080 C.3   146  GLU146      0.0402
    147  CG        19.8090   71.3760   29.7670 C.3   146  GLU146      0.1161
    148  CD        19.2250   71.0590   28.4130 C.2   146  GLU146      0.3649
    149  OE1       18.0830   71.4390   28.0600 O.co2 146  GLU146     -0.2457
    150  OE2       19.9110   70.3770   27.6040 O.co2 146  GLU146     -0.2457
    151  N         20.2330   75.4120   30.6910 N.am  147  ARG147     -0.1966
    152  CA        19.9640   76.8560   30.7550 C.3   147  ARG147      0.1729
    153  C         18.4630   77.0490   30.9340 C.2   147  ARG147      0.2616
    154  O         17.6690   76.2010   30.5370 O.2   147  ARG147     -0.2715
    155  CB        20.4480   77.4640   29.4460 C.3   147  ARG147      0.0348
    156  CG        20.9440   78.9010   29.5660 C.3   147  ARG147      0.0492
    157  CD        21.3270   79.3940   28.1780 C.3   147  ARG147      0.2205
    158  NE        22.5230   78.7630   27.6300 N.pl3 147  ARG147     -0.0865
    159  CZ        23.7570   79.1820   27.8700 C.cat 147  ARG147      0.5346
    160  NH1       23.9560   80.2270   28.6620 N.pl3 147  ARG147      0.1354
    161  NH2       24.8030   78.5980   27.3300 N.pl3 147  ARG147      0.1354
    162  N         18.0690   78.1280   31.5540 N.am  148  TYR148     -0.1960
    163  CA        16.7210   78.5840   31.7540 C.3   148  TYR148      0.1771
    164  C         16.0000   77.8370   32.8840 C.2   148  TYR148      0.2619
    165  O         14.8630   78.1690   33.1970 O.2   148  TYR148     -0.2715
    166  CB        15.9430   78.4330   30.4430 C.3   148  TYR148      0.0574
    167  CG        16.4460   79.1530   29.2150 C.ar  148  TYR148     -0.0198
    168  CD1       17.2370   80.3030   29.2780 C.ar  148  TYR148     -0.0009
    169  CD2       16.0790   78.7010   27.9560 C.ar  148  TYR148     -0.0009
    170  CE1       17.6440   80.9460   28.1300 C.ar  148  TYR148      0.0417
    171  CE2       16.4620   79.3510   26.8030 C.ar  148  TYR148      0.0417
    172  CZ        17.2750   80.4660   26.8940 C.ar  148  TYR148      0.1957
    173  OH        17.6390   81.1030   25.7370 O.3   148  TYR148     -0.2866
    174  N         16.6870   76.8510   33.4470 N.am  149  GLU149     -0.1977
    175  CA        16.0600   76.0580   34.5100 C.3   149  GLU149      0.1602
    176  C         16.2600   76.6690   35.8840 C.2   149  GLU149      0.2287
    177  O         17.0380   76.1840   36.7080 O.2   149  GLU149     -0.2864
    178  CB        16.5970   74.6250   34.4610 C.3   149  GLU149      0.0415
    179  CG        16.2340   73.9710   33.1290 C.3   149  GLU149      0.1163
    180  CD        16.4680   72.4750   33.1790 C.2   149  GLU149      0.3649
    181  OE1       15.8650   71.8370   34.0700 O.co2 149  GLU149     -0.2457
    182  OE2       17.2370   71.9590   32.3500 O.co2 149  GLU149     -0.2457
    183  N         11.9650   81.2420   34.8210 N.3   154  GLN154     -0.1245
    184  CA        10.7220   80.5340   34.4560 C.3   154  GLN154      0.1566
    185  C          9.5090   81.4180   34.6660 C.2   154  GLN154      0.2260
    186  O          8.5360   81.4800   33.8920 O.2   154  GLN154     -0.2867
    187  CB        10.6220   79.2460   35.2770 C.3   154  GLN154      0.0367
    188  CG        11.6250   78.1740   34.8940 C.3   154  GLN154      0.0905
    189  CD        11.2550   77.4720   33.6050 C.2   154  GLN154      0.2608
    190  OE1       10.0940   77.1200   33.4050 O.2   154  GLN154     -0.2717
    191  NE2       12.2130   77.2470   32.7290 N.am  154  GLN154     -0.0878
@<TRIPOS>BOND
     1    75    74    2
     2    74    73    1
     3   113   112    1
     4    73    72    1
     5    73    76    1
     6    76    77    1
     7   112   110   ar
     8   112   111   ar
     9    34    32   ar
    10    34    33   ar
    11   110   108   ar
    12    32    30   ar
    13    77    78    1
    14   111   109   ar
    15    33    31   ar
    16    78    79    1
    17    64    63    2
    18    30    29   ar
    19    79    80    2
    20   108   107   ar
    21    63    62    1
    22   109   107   ar
    23    61    62    1
    24    31    29   ar
    25   107   106    1
    26    44    45    2
    27    44    43    1
    28    29    28    1
    29    80    82    1
    30    80    81    1
    31    62    65    1
    32    42    43    1
    33    43    46    1
    34    28    25    1
    35   106   103    1
    36    65    66    1
    37    37    36    1
    38    37    38    2
    39    25    24    1
    40    25    26    1
    41   103   104    1
    42   103   102    1
    43   104   105    2
    44    36    39    1
    45    36    35    1
    46    46    47    1
    47    94    93    2
    48    66    67   ar
    49    66    68   ar
    50    39    40    1
    51    67    69   ar
    52    26    35   am
    53    26    27    2
    54    47    48    1
    55    35    41    1
    56   102    93   am
    57    68    70   ar
    58    93    92    1
    59    83    84    1
    60   121   122    1
    61   121   120    1
    62    69    71   ar
    63    40    41    1
    64    86    85    2
    65   122   123    2
    66   120   116   am
    67    70    71   ar
    68    48    49    1
    69    85    84    1
    70    85    91   am
    71    84    87    1
    72    92    91    1
    73    92    95    1
    74   140   139    1
    75   141   139    1
    76    87    88    1
    77    95    96    1
    78   114   115    1
    79   139   136    1
    80    49    50    2
    81   116   115    1
    82   116   117    2
    83   115   118    1
    84   118   119    1
    85    88    90   ar
    86    88    89   ar
    87    50    51    1
    88    50    52    1
    89    59    58    1
    90    96    97    1
    91   136   135    1
    92   136   137    1
    93    97    98    1
    94   135   126   am
    95    58    57    1
    96    58    60    1
    97    53    54    1
    98   137   138    2
    99   173   172    1
   100    57    54    1
   101   124   125    1
   102    98    99    2
   103   126   125    1
   104   126   127    2
   105    54    55    1
   106   128   125    1
   107   128   129    1
   108    21    20    2
   109    12    11    2
   110   171   172   ar
   111   171   169   ar
   112   172   170   ar
   113    23    22    1
   114   130   129   ar
   115   130   132   ar
   116   100    99    1
   117    19    22    1
   118    19    20    1
   119    19    18    1
   120    99   101    1
   121   161   159    1
   122   129   131   ar
   123    55    56    2
   124    11    18   am
   125    11    10    1
   126   150   148   ar
   127   158   159    2
   128   158   157    1
   129    13    10    1
   130    13    14    1
   131    15    14    1
   132    15    16    1
   133   159   160    1
   134   169   167   ar
   135   132   134   ar
   136   149   148   ar
   137   170   168   ar
   138   157   156    1
   139    10     9    1
   140   148   147    1
   141    16    17    1
   142   131   133   ar
   143   167   168   ar
   144   167   166    1
   145   134   133   ar
   146   155   156    1
   147   155   152    1
   148   147   146    1
   149   166   163    1
   150   146   143    1
   151   154   153    2
   152   151   152    1
   153   151   144   am
   154   152   153    1
   155   153   162   am
   156   162   163    1
   157   143   144    1
   158   143   142    1
   159   163   164    1
   160   144   145    2
   161   182   180   ar
   162   191   189   am
   163   164   165    2
   164   164   174   am
   165   179   180    1
   166   179   178    1
   167   180   181   ar
   168   190   189    2
   169   174   175    1
   170     7     6   ar
   171   189   188    1
   172     1     2    1
   173   186   185    2
   174     2     3    1
   175     2     5    1
   176   184   185    1
   177   184   183    1
   178   184   187    1
   179   178   175    1
   180   175   176    1
   181     6     5    1
   182     6     8   ar
   183     3     4    2
   184   188   187    1
   185   176   177    2
