@<TRIPOS>MOLECULE
tmp/1e9cA00.pdb
 161 157 0 0 0
SMALL
GASTEIGER

@<TRIPOS>ATOM
      1  N         10.2570   71.4050   19.4220 N.3    39  PHE39      -0.1228
      2  CA        11.1680   72.5070   19.1530 C.3    39  PHE39       0.1721
      3  C         11.8160   72.8870   20.4800 C.2    39  PHE39       0.2437
      4  O         11.1060   72.9040   21.4860 O.2    39  PHE39      -0.2733
      5  CB        10.5630   73.7270   18.4400 C.3    39  PHE39       0.0547
      6  CG        10.1790   73.3760   17.0250 C.ar   39  PHE39      -0.0202
      7  CD1       11.0530   73.2450   15.9760 C.ar   39  PHE39      -0.0042
      8  CD2        8.7960   73.1030   16.8320 C.ar   39  PHE39      -0.0042
      9  CE1       10.6160   72.8680   14.7130 C.ar   39  PHE39      -0.0003
     10  CE2        8.3950   72.7200   15.5720 C.ar   39  PHE39      -0.0003
     11  CZ         9.2590   72.6000   14.5250 C.ar   39  PHE39      -0.0000
     12  N         13.1100   73.1400   20.4600 N.am   40  PRO40      -0.2729
     13  CA        13.9600   73.0360   19.3040 C.3    40  PRO40       0.1401
     14  C         14.1980   71.6080   18.8470 C.2    40  PRO40       0.2269
     15  O         14.2050   70.6220   19.6170 O.2    40  PRO40      -0.2865
     16  CB        15.3320   73.5970   19.7830 C.3    40  PRO40       0.0296
     17  CG        15.3210   73.2590   21.2340 C.3    40  PRO40       0.0237
     18  CD        13.8820   73.5160   21.6730 C.3    40  PRO40       0.0939
     19  N         16.7740   69.4340   17.8930 N.3    42  ARG42      -0.1245
     20  CA        18.2330   69.4870   18.0430 C.3    42  ARG42       0.1563
     21  C         19.0820   68.6280   17.1350 C.2    42  ARG42       0.2260
     22  O         20.3030   68.6530   17.3140 O.2    42  ARG42      -0.2867
     23  CB        18.5590   69.0680   19.4770 C.3    42  ARG42       0.0307
     24  CG        17.8780   69.9720   20.4920 C.3    42  ARG42       0.0489
     25  CD        18.2020   69.3850   21.8600 C.3    42  ARG42       0.2205
     26  NE        17.4090   70.0760   22.8800 N.pl3  42  ARG42      -0.0865
     27  CZ        18.1150   70.4700   23.9590 C.cat  42  ARG42       0.5346
     28  NH1       19.4020   70.1760   23.9680 N.pl3  42  ARG42       0.1354
     29  NH2       17.5720   71.0810   24.9760 N.pl3  42  ARG42       0.1354
     30  N         22.1300   75.7910   24.8580 N.3    54  LEU54      -0.1245
     31  CA        21.2890   75.4710   26.0070 C.3    54  LEU54       0.1561
     32  C         22.0370   74.7060   27.0940 C.2    54  LEU54       0.2260
     33  O         21.6750   74.8180   28.2630 O.2    54  LEU54      -0.2867
     34  CB        20.0690   74.6570   25.5500 C.3    54  LEU54       0.0270
     35  CG        19.0410   75.4540   24.7400 C.3    54  LEU54       0.0019
     36  CD1       17.9590   74.5210   24.1850 C.3    54  LEU54       0.0001
     37  CD2       18.4020   76.5160   25.6260 C.3    54  LEU54       0.0001
     38  N         16.5530   79.9850   16.7500 N.3    69  PHE69      -0.1241
     39  CA        15.3450   79.2440   17.2500 C.3    69  PHE69       0.1605
     40  C         14.2840   79.3200   16.1730 C.2    69  PHE69       0.2264
     41  O         13.5850   78.3110   15.8920 O.2    69  PHE69      -0.2867
     42  CB        14.9440   79.7520   18.6190 C.3    69  PHE69       0.0534
     43  CG        15.5030   79.1350   19.8580 C.ar   69  PHE69      -0.0203
     44  CD1       15.2380   77.7910   20.1580 C.ar   69  PHE69      -0.0042
     45  CD2       16.3160   79.8300   20.7350 C.ar   69  PHE69      -0.0042
     46  CE1       15.7680   77.1970   21.2960 C.ar   69  PHE69      -0.0003
     47  CE2       16.8360   79.2560   21.8740 C.ar   69  PHE69      -0.0003
     48  CZ        16.5670   77.9260   22.1620 C.ar   69  PHE69      -0.0000
     49  N         12.4530   76.3780   13.1970 N.3    73  ARG73      -0.1245
     50  CA        11.0910   75.9910   12.9010 C.3    73  ARG73       0.1563
     51  C         10.8940   76.0580   11.3690 C.2    73  ARG73       0.2260
     52  O         10.3150   75.1470   10.8310 O.2    73  ARG73      -0.2867
     53  CB        10.0020   76.8830   13.5270 C.3    73  ARG73       0.0307
     54  CG         9.9920   76.6590   15.0690 C.3    73  ARG73       0.0489
     55  CD         9.0550   77.6560   15.7340 C.3    73  ARG73       0.2205
     56  NE         9.6280   78.9830   16.0590 N.pl3  73  ARG73      -0.0865
     57  CZ        10.4300   79.1490   17.1310 C.cat  73  ARG73       0.5346
     58  NH1       10.9050   78.1560   17.9170 N.pl3  73  ARG73       0.1354
     59  NH2       10.8690   80.3730   17.4450 N.pl3  73  ARG73       0.1354
     60  N          6.3560   72.5250   22.1100 N.3    94  ARG94      -0.1231
     61  CA         6.8440   73.8860   22.0370 C.3    94  ARG94       0.1694
     62  C          6.8630   74.3490   20.5860 C.2    94  ARG94       0.2592
     63  O          7.0830   73.6010   19.6350 O.2    94  ARG94      -0.2718
     64  CB         8.2420   74.0260   22.6170 C.3    94  ARG94       0.0321
     65  CG         8.4360   73.8440   24.1180 C.3    94  ARG94       0.0489
     66  CD         9.9160   74.3280   24.3630 C.3    94  ARG94       0.2205
     67  NE        10.2790   74.0480   25.7560 N.pl3  94  ARG94      -0.0865
     68  CZ         9.9120   74.7090   26.8370 C.cat  94  ARG94       0.5346
     69  NH1        9.1440   75.7980   26.8260 N.pl3  94  ARG94       0.1354
     70  NH2       10.3400   74.3310   28.0450 N.pl3  94  ARG94       0.1354
     71  N          6.6090   75.6720   20.4300 N.am   95  TYR95      -0.1976
     72  CA         6.6300   76.2350   19.0690 C.3    95  TYR95       0.1639
     73  C          7.0530   77.7010   19.1720 C.2    95  TYR95       0.2290
     74  O          7.8800   78.0970   20.0130 O.2    95  TYR95      -0.2864
     75  CB         5.2390   76.1220   18.4900 C.3    95  TYR95       0.0560
     76  CG         4.9860   76.2280   17.0100 C.ar   95  TYR95      -0.0198
     77  CD1        5.7330   75.5130   16.0900 C.ar   95  TYR95      -0.0009
     78  CD2        4.0080   77.1230   16.5450 C.ar   95  TYR95      -0.0009
     79  CE1        5.4930   75.5670   14.7450 C.ar   95  TYR95       0.0417
     80  CE2        3.7690   77.1510   15.1670 C.ar   95  TYR95       0.0417
     81  CZ         4.4810   76.3960   14.2810 C.ar   95  TYR95       0.1957
     82  OH         4.2210   76.4530   12.9330 O.3    95  TYR95      -0.2866
     83  N          7.0310   79.6010   22.7770 N.3    98  SER98      -0.1202
     84  CA         8.1740   79.4580   23.6550 C.3    98  SER98       0.2020
     85  C          9.3070   80.3530   23.1100 C.2    98  SER98       0.2619
     86  O         10.0810   80.9560   23.8550 O.2    98  SER98      -0.2717
     87  CB         8.7080   78.0340   23.7220 C.3    98  SER98       0.2103
     88  OG         8.0030   77.2690   24.7160 O.3    98  SER98      -0.2182
     89  N          9.3500   80.4750   21.7780 N.am   99  GLY99      -0.1956
     90  CA        10.4060   81.3020   21.1700 C.3    99  GLY99       0.1869
     91  C         10.2780   82.7430   21.6370 C.2    99  GLY99       0.2309
     92  O         11.2650   83.3560   22.1040 O.2    99  GLY99      -0.2863
     93  N         10.6160   83.0920   25.8920 N.3   102  TYR102     -0.1227
     94  CA        11.9150   82.9360   26.5230 C.3   102  TYR102      0.1736
     95  C         12.8840   84.0700   26.1680 C.2   102  TYR102      0.2596
     96  O         13.6510   84.4810   27.0330 O.2   102  TYR102     -0.2718
     97  CB        12.4890   81.5240   26.2660 C.3   102  TYR102      0.0548
     98  CG        11.7480   80.5390   27.1690 C.ar  102  TYR102     -0.0200
     99  CD1       10.5210   79.9910   26.8370 C.ar  102  TYR102     -0.0009
    100  CD2       12.2940   80.1840   28.4010 C.ar  102  TYR102     -0.0009
    101  CE1        9.8670   79.1290   27.7160 C.ar  102  TYR102      0.0417
    102  CE2       11.6700   79.3090   29.2700 C.ar  102  TYR102      0.0417
    103  CZ        10.4390   78.7870   28.9140 C.ar  102  TYR102      0.1957
    104  OH         9.7970   77.8820   29.7310 O.3   102  TYR102     -0.2866
    105  N         12.8440   84.5160   24.9360 N.am  103  THR103     -0.1953
    106  CA        13.7510   85.6230   24.5520 C.3   103  THR103      0.1897
    107  C         13.1430   86.8890   25.1620 C.2   103  THR103      0.2313
    108  O         13.8340   87.7720   25.6800 O.2   103  THR103     -0.2863
    109  CB        13.9230   85.7270   23.0380 C.3   103  THR103      0.1794
    110  OG1       14.6290   84.5790   22.5290 O.3   103  THR103     -0.2208
    111  CG2       14.6490   87.0100   22.6380 C.3   103  THR103      0.0378
    112  N         20.3540   73.3630   32.4410 N.3   146  GLU146     -0.1182
    113  CA        20.3600   74.0070   31.1280 C.3   146  GLU146      0.1915
    114  C         20.1160   75.5040   31.3380 C.2   146  GLU146      0.2634
    115  O         19.7090   75.9410   32.4070 O.2   146  GLU146     -0.2714
    116  CB        19.3900   73.3990   30.1330 C.2   146  GLU146      0.0085
    117  CG        19.9570   72.3700   29.1760 C.2   146  GLU146      0.0835
    118  CD        19.0910   71.9360   28.0170 C.2   146  GLU146      0.3877
    119  OE1       17.9450   72.4090   27.7610 O.co2 146  GLU146     -0.2406
    120  OE2       19.5650   71.0360   27.2800 O.co2 146  GLU146     -0.2406
    121  N         20.4220   76.2690   30.3030 N.am  147  ARG147     -0.1963
    122  CA        20.1980   77.7070   30.4040 C.3   147  ARG147      0.1729
    123  C         18.7050   77.9370   30.6230 C.2   147  ARG147      0.2616
    124  O         17.9330   77.0840   30.1980 O.2   147  ARG147     -0.2715
    125  CB        20.7330   78.3390   29.1410 C.3   147  ARG147      0.0348
    126  CG        21.0110   79.8260   29.2560 C.3   147  ARG147      0.0492
    127  CD        21.5600   80.3260   27.9420 C.3   147  ARG147      0.2205
    128  NE        22.7850   79.6820   27.4840 N.pl3 147  ARG147     -0.0865
    129  CZ        23.9930   80.1320   27.8360 C.cat 147  ARG147      0.5346
    130  NH1       24.1110   81.1980   28.6360 N.pl3 147  ARG147      0.1354
    131  NH2       25.0860   79.5700   27.3670 N.pl3 147  ARG147      0.1354
    132  N         18.3540   79.0140   31.3190 N.am  148  TYR148     -0.1960
    133  CA        16.9790   79.3660   31.5750 C.3   148  TYR148      0.1771
    134  C         16.3280   78.5790   32.7200 C.2   148  TYR148      0.2619
    135  O         15.1510   78.8360   33.0190 O.2   148  TYR148     -0.2715
    136  CB        16.0710   79.2690   30.3400 C.3   148  TYR148      0.0574
    137  CG        16.5080   79.9760   29.0750 C.ar  148  TYR148     -0.0198
    138  CD1       17.4350   81.0150   29.1170 C.ar  148  TYR148     -0.0009
    139  CD2       16.0240   79.5760   27.8330 C.ar  148  TYR148     -0.0009
    140  CE1       17.8460   81.6500   27.9570 C.ar  148  TYR148      0.0417
    141  CE2       16.4240   80.2250   26.6710 C.ar  148  TYR148      0.0417
    142  CZ        17.3500   81.2490   26.7410 C.ar  148  TYR148      0.1957
    143  OH        17.7280   81.8690   25.5940 O.3   148  TYR148     -0.2866
    144  N         17.0160   77.5720   33.2340 N.am  149  GLU149     -0.1977
    145  CA        16.4150   76.7270   34.2650 C.3   149  GLU149      0.1602
    146  C         16.6690   77.2560   35.6690 C.2   149  GLU149      0.2287
    147  O         17.3560   76.6510   36.4770 O.2   149  GLU149     -0.2864
    148  CB        16.8680   75.2620   34.1460 C.3   149  GLU149      0.0415
    149  CG        16.5120   74.7350   32.7610 C.3   149  GLU149      0.1163
    150  CD        16.5790   73.2430   32.5840 C.2   149  GLU149      0.3649
    151  OE1       17.5650   72.6520   33.0590 O.co2 149  GLU149     -0.2457
    152  OE2       15.6630   72.6670   31.9620 O.co2 149  GLU149     -0.2457
    153  N         12.1700   81.9080   34.6640 N.3   154  GLN154     -0.1245
    154  CA        10.9220   81.2170   34.3490 C.3   154  GLN154      0.1566
    155  C          9.7140   82.0900   34.6620 C.2   154  GLN154      0.2260
    156  O          8.7410   82.1710   33.9400 O.2   154  GLN154     -0.2867
    157  CB        10.7370   79.9220   35.1540 C.3   154  GLN154      0.0367
    158  CG        11.6740   78.7930   34.7950 C.3   154  GLN154      0.0905
    159  CD        11.4760   78.3160   33.3550 C.2   154  GLN154      0.2608
    160  OE1       10.3760   78.1300   32.8490 O.2   154  GLN154     -0.2717
    161  NE2       12.5750   78.1120   32.6420 N.am  154  GLN154     -0.0878
@<TRIPOS>BOND
     1    52    51    2
     2    51    50    1
     3    50    49    1
     4    50    53    1
     5    82    81    1
     6    53    54    1
     7    81    79   ar
     8    81    80   ar
     9    11     9   ar
    10    11    10   ar
    11     9     7   ar
    12    79    77   ar
    13    54    55    1
    14    80    78   ar
    15    10     8   ar
    16    55    56    1
    17    41    40    2
    18     7     6   ar
    19    56    57    2
    20    77    76   ar
    21    40    39    1
    22    78    76   ar
    23    38    39    1
    24     8     6   ar
    25    76    75    1
    26     6     5    1
    27    57    59    1
    28    57    58    1
    29    21    22    2
    30    21    20    1
    31    39    42    1
    32    19    20    1
    33    20    23    1
    34     5     2    1
    35    75    72    1
    36    42    43    1
    37    14    13    1
    38    14    15    2
    39    72    73    1
    40    72    71    1
    41     2     1    1
    42     2     3    1
    43    73    74    2
    44    13    16    1
    45    13    12    1
    46    23    24    1
    47    63    62    2
    48    16    17    1
    49    43    44   ar
    50    43    45   ar
    51    44    46   ar
    52    71    62   am
    53    12     3   am
    54    12    18    1
    55     3     4    2
    56    24    25    1
    57    62    61    1
    58    45    47   ar
    59    90    91    1
    60    90    89    1
    61    17    18    1
    62    46    48   ar
    63    91    92    2
    64    89    85   am
    65    25    26    1
    66    47    48   ar
    67    61    60    1
    68    61    64    1
    69   110   109    1
    70    64    65    1
    71   111   109    1
    72    83    84    1
    73    26    27    2
    74   109   106    1
    75    85    84    1
    76    85    86    2
    77    84    87    1
    78    87    88    1
    79    27    28    1
    80    27    29    1
    81    65    66    1
    82    36    35    1
    83    66    67    1
    84   106   105    1
    85   106   107    1
    86    35    34    1
    87    35    37    1
    88    30    31    1
    89   105    95   am
    90   107   108    2
    91    34    31    1
    92   143   142    1
    93    67    68    2
    94    93    94    1
    95    31    32    1
    96    95    94    1
    97    95    96    2
    98    97    94    1
    99    97    98    1
   100   141   142   ar
   101   141   139   ar
   102   142   140   ar
   103    69    68    1
   104    68    70    1
   105    99    98   ar
   106    99   101   ar
   107    32    33    2
   108    98   100   ar
   109   120   118   ar
   110   131   129    1
   111   128   129    2
   112   128   127    1
   113   101   103   ar
   114   119   118   ar
   115   139   137   ar
   116   129   130    1
   117   127   126    1
   118   140   138   ar
   119   118   117    1
   120   100   102   ar
   121   103   102   ar
   122   103   104    1
   123   137   138   ar
   124   137   136    1
   125   125   126    1
   126   125   122    1
   127   117   116    2
   128   116   113    1
   129   124   123    2
   130   121   122    1
   131   121   114   am
   132   136   133    1
   133   122   123    1
   134   123   132   am
   135   113   114    1
   136   113   112    1
   137   132   133    1
   138   114   115    2
   139   133   134    1
   140   152   150   ar
   141   150   149    1
   142   150   151   ar
   143   161   159   am
   144   134   135    2
   145   134   144   am
   146   149   148    1
   147   160   159    2
   148   144   145    1
   149   159   158    1
   150   156   155    2
   151   148   145    1
   152   145   146    1
   153   154   155    1
   154   154   153    1
   155   154   157    1
   156   158   157    1
   157   146   147    2
