@<TRIPOS>MOLECULE
tmp/1e9hA00.pdb
 170 161 0 0 0
SMALL
GASTEIGER

@<TRIPOS>ATOM
      1  N          1.7540   47.0030   46.0190 N.3    10  ILE10      -0.1231
      2  CA         1.9900   45.7840   46.7780 C.3    10  ILE10       0.1692
      3  C          1.2760   45.7020   48.1210 C.2    10  ILE10       0.2592
      4  O          0.8250   44.6290   48.5190 O.2    10  ILE10      -0.2718
      5  CB         3.5040   45.5980   46.9770 C.3    10  ILE10       0.0266
      6  CG1        4.0450   44.6630   45.9030 C.3    10  ILE10       0.0019
      7  CG2        3.8030   45.0990   48.3550 C.3    10  ILE10       0.0020
      8  CD1        5.5430   44.5050   45.9560 C.3    10  ILE10       0.0001
      9  N          1.1850   46.8300   48.8180 N.am   11  GLY11      -0.1957
     10  CA         0.5230   46.8600   50.1120 C.3    11  GLY11       0.1869
     11  C          0.0480   48.2680   50.4070 C.2    11  GLY11       0.2309
     12  O         -0.0610   49.0790   49.4920 O.2    11  GLY11      -0.2863
     13  N          2.9760   50.8080   49.2380 N.3    18  VAL18      -0.1245
     14  CA         4.2740   50.1850   49.0570 C.3    18  VAL18       0.1561
     15  C          4.2330   49.6610   47.6350 C.2    18  VAL18       0.2260
     16  O          3.3260   48.9240   47.2770 O.2    18  VAL18      -0.2867
     17  CB         4.5150   49.0230   50.0400 C.3    18  VAL18       0.0252
     18  CG1        5.8100   48.3230   49.6950 C.3    18  VAL18       0.0019
     19  CG2        4.6000   49.5510   51.4570 C.3    18  VAL18       0.0019
     20  N         11.3970   48.0610   47.0190 N.3    31  ALA31      -0.1245
     21  CA        10.0680   48.3150   47.5520 C.3    31  ALA31       0.1562
     22  C         10.0410   49.7880   47.9930 C.2    31  ALA31       0.2260
     23  O         10.8410   50.2190   48.8300 O.2    31  ALA31      -0.2867
     24  CB         9.7970   47.4060   48.7270 C.3    31  ALA31       0.0290
     25  N          7.9670   52.8620   49.7310 N.3    33  LYS33      -0.1245
     26  CA         6.8750   53.1860   50.6370 C.3    33  LYS33       0.1561
     27  C          6.7730   54.7080   50.7060 C.2    33  LYS33       0.2260
     28  O          7.5890   55.3530   51.3680 O.2    33  LYS33      -0.2867
     29  CB         7.1620   52.6290   52.0320 C.3    33  LYS33       0.0271
     30  CG         6.4190   53.3730   53.1280 C.3    33  LYS33       0.0035
     31  CD         6.8240   52.9330   54.5170 C.3    33  LYS33       0.0206
     32  CE         6.1690   51.6310   54.9100 C.3    33  LYS33       0.1093
     33  NZ         6.4180   51.3740   56.3490 N.3    33  LYS33      -0.1314
     34  N         10.4850   55.3830   62.5760 N.3    51  GLU51      -0.1245
     35  CA        10.7590   54.3280   61.6180 C.3    51  GLU51       0.1567
     36  C         12.1040   54.5190   60.9200 C.2    51  GLU51       0.2260
     37  O         12.8940   53.5860   60.8190 O.2    51  GLU51      -0.2867
     38  CB         9.6480   54.2550   60.5640 C.3    51  GLU51       0.0388
     39  CG         9.6870   52.9710   59.7480 C.3    51  GLU51       0.1160
     40  CD         8.5520   52.8550   58.7470 C.2    51  GLU51       0.3649
     41  OE1        7.4170   53.2790   59.0570 O.co2  51  GLU51      -0.2457
     42  OE2        8.7930   52.3200   57.6480 O.co2  51  GLU51      -0.2457
     43  N         15.3820   52.3690   62.0730 N.3    55  LEU55      -0.1245
     44  CA        15.7030   51.4140   61.0180 C.3    55  LEU55       0.1561
     45  C         17.1120   51.6230   60.4810 C.2    55  LEU55       0.2260
     46  O         17.8140   50.6630   60.1830 O.2    55  LEU55      -0.2867
     47  CB        14.6600   51.5130   59.9020 C.3    55  LEU55       0.0270
     48  CG        14.2270   50.2250   59.1930 C.3    55  LEU55       0.0019
     49  CD1       14.2890   49.0260   60.1460 C.3    55  LEU55       0.0001
     50  CD2       12.8270   50.4230   58.6290 C.3    55  LEU55       0.0001
     51  N         14.3310   43.9520   57.4630 N.3    64  VAL64      -0.1245
     52  CA        14.3240   44.5770   56.1380 C.3    64  VAL64       0.1561
     53  C         15.3320   45.6900   56.0790 C.2    64  VAL64       0.2260
     54  O         15.5010   46.4390   57.0410 O.2    64  VAL64      -0.2867
     55  CB        12.9850   45.2390   55.7570 C.3    64  VAL64       0.0252
     56  CG1       12.1330   44.2720   55.0210 C.3    64  VAL64       0.0019
     57  CG2       12.2930   45.7730   56.9870 C.3    64  VAL64       0.0019
     58  N         13.2070   50.4990   50.2290 N.3    80  PHE80      -0.1227
     59  CA        13.5400   49.2590   50.9360 C.3    80  PHE80       0.1736
     60  C         13.9260   48.0980   50.0240 C.2    80  PHE80       0.2595
     61  O         13.6140   48.0860   48.8310 O.2    80  PHE80      -0.2718
     62  CB        12.3370   48.7570   51.7430 C.3    80  PHE80       0.0547
     63  CG        11.9980   49.5760   52.9440 C.ar   80  PHE80      -0.0202
     64  CD1       11.0070   50.5450   52.8810 C.ar   80  PHE80      -0.0042
     65  CD2       12.6180   49.3230   54.1660 C.ar   80  PHE80      -0.0042
     66  CE1       10.6310   51.2460   54.0170 C.ar   80  PHE80      -0.0003
     67  CE2       12.2460   50.0200   55.3100 C.ar   80  PHE80      -0.0003
     68  CZ        11.2480   50.9840   55.2340 C.ar   80  PHE80      -0.0000
     69  N         14.5590   47.0910   50.6160 N.am   81  GLU81      -0.1965
     70  CA        14.9180   45.8990   49.8690 C.3    81  GLU81       0.1733
     71  C         13.5950   45.2040   49.5480 C.2    81  GLU81       0.2616
     72  O         12.6210   45.3430   50.2880 O.2    81  GLU81      -0.2715
     73  CB        15.7970   44.9870   50.7080 C.3    81  GLU81       0.0429
     74  CG        15.1270   44.3610   51.9050 C.3    81  GLU81       0.1163
     75  CD        16.0660   43.4040   52.6220 C.2    81  GLU81       0.3649
     76  OE1       16.8010   42.6850   51.9220 O.co2  81  GLU81      -0.2457
     77  OE2       16.0690   43.3600   53.8700 O.co2  81  GLU81      -0.2457
     78  N         13.5490   44.4550   48.4530 N.am   82  PHE82      -0.1960
     79  CA        12.3120   43.8070   48.0780 C.3    82  PHE82       0.1771
     80  C         12.1880   42.3550   48.5090 C.2    82  PHE82       0.2619
     81  O         13.1590   41.6140   48.4990 O.2    82  PHE82      -0.2715
     82  CB        12.1160   43.8950   46.5580 C.3    82  PHE82       0.0574
     83  CG        10.8850   43.1670   46.0650 C.ar   82  PHE82      -0.0200
     84  CD1        9.6270   43.7600   46.1470 C.ar   82  PHE82      -0.0042
     85  CD2       10.9770   41.8530   45.5900 C.ar   82  PHE82      -0.0042
     86  CE1        8.4770   43.0520   45.7670 C.ar   82  PHE82      -0.0003
     87  CE2        9.8380   41.1480   45.2130 C.ar   82  PHE82      -0.0003
     88  CZ         8.5870   41.7500   45.3030 C.ar   82  PHE82      -0.0000
     89  N         10.9830   41.9620   48.9080 N.am   83  LEU83      -0.1963
     90  CA        10.7290   40.5770   49.2710 C.3    83  LEU83       0.1728
     91  C          9.4340   40.1240   48.6210 C.2    83  LEU83       0.2616
     92  O          8.4570   40.8630   48.5420 O.2    83  LEU83      -0.2715
     93  CB        10.6870   40.3650   50.7870 C.3    83  LEU83       0.0311
     94  CG        12.0970   40.1770   51.3650 C.3    83  LEU83       0.0022
     95  CD1       12.6870   41.5450   51.6560 C.3    83  LEU83       0.0001
     96  CD2       12.0640   39.3360   52.6400 C.3    83  LEU83       0.0001
     97  N          9.4580   38.8890   48.1470 N.am   84  HIS84      -0.1959
     98  CA         8.3530   38.2730   47.4410 C.3    84  HIS84       0.1787
     99  C          6.9890   38.1710   48.1160 C.2    84  HIS84       0.2620
    100  O          5.9590   38.2260   47.4380 O.2    84  HIS84      -0.2715
    101  CB         8.8050   36.8830   46.9950 C.3    84  HIS84       0.0785
    102  CG        10.1010   36.8980   46.2460 C.ar   84  HIS84       0.0821
    103  ND1       10.1930   37.2970   44.9290 N.ar   84  HIS84      -0.2267
    104  CD2       11.3650   36.6270   46.6470 C.ar   84  HIS84       0.1154
    105  CE1       11.4580   37.2720   44.5520 C.ar   84  HIS84       0.1986
    106  NE2       12.1900   36.8690   45.5760 N.ar   84  HIS84      -0.2212
    107  N          6.9570   38.0450   49.4340 N.am   85  GLN85      -0.1963
    108  CA         5.6720   37.8670   50.0980 C.3    85  GLN85       0.1733
    109  C          5.7640   38.1190   51.5960 C.2    85  GLN85       0.2616
    110  O          6.8490   38.3740   52.1250 O.2    85  GLN85      -0.2715
    111  CB         5.2300   36.4230   49.8470 C.3    85  GLN85       0.0408
    112  CG         3.9410   35.9920   50.4870 C.3    85  GLN85       0.0908
    113  CD         2.7400   36.3500   49.6490 C.2    85  GLN85       0.2608
    114  OE1        1.6590   35.8100   49.8530 O.2    85  GLN85      -0.2717
    115  NE2        2.9200   37.2630   48.6930 N.am   85  GLN85      -0.0878
    116  N          4.6210   38.0520   52.2730 N.am   86  ASP86      -0.1971
    117  CA         4.5840   38.2140   53.7220 C.3    86  ASP86       0.1709
    118  C          4.0180   36.9230   54.3410 C.2    86  ASP86       0.2293
    119  O          3.3370   36.1500   53.6680 O.2    86  ASP86      -0.2864
    120  CB         3.7600   39.4450   54.1300 C.3    86  ASP86       0.1436
    121  CG         2.2630   39.2070   54.0780 C.2    86  ASP86       0.3671
    122  OD1        1.7700   38.3430   54.8220 O.co2  86  ASP86      -0.2456
    123  OD2        1.5740   39.8930   53.3030 O.co2  86  ASP86      -0.2456
    124  N         -0.1140   35.8350   54.1470 N.3    89  LYS89      -0.1245
    125  CA        -0.4070   35.3970   52.8130 C.3    89  LYS89       0.1561
    126  C          0.1320   33.9900   52.6420 C.2    89  LYS89       0.2260
    127  O         -0.6250   33.0730   52.3360 O.2    89  LYS89      -0.2867
    128  CB         0.2490   36.3540   51.8350 C.3    89  LYS89       0.0271
    129  CG        -0.5220   37.6320   51.5870 C.3    89  LYS89       0.0035
    130  CD         0.3870   38.6620   50.9290 C.3    89  LYS89       0.0206
    131  CE        -0.2260   39.2700   49.6700 C.3    89  LYS89       0.1093
    132  NZ        -0.2190   38.3260   48.5040 N.3    89  LYS89      -0.1314
    133  N          1.6440   39.6830   59.2700 N.3   131  GLN131     -0.1231
    134  CA         1.5790   40.5430   58.1030 C.3   131  GLN131      0.1698
    135  C          2.8070   41.3970   58.0240 C.2   131  GLN131      0.2592
    136  O          3.1680   41.8440   56.9510 O.2   131  GLN131     -0.2718
    137  CB         0.3430   41.4620   58.0800 C.3   131  GLN131      0.0381
    138  CG        -0.5380   41.4360   59.3070 C.3   131  GLN131      0.0905
    139  CD        -1.1450   40.0740   59.5300 C.2   131  GLN131      0.2608
    140  OE1       -1.1230   39.5370   60.6390 O.2   131  GLN131     -0.2717
    141  NE2       -1.6930   39.5020   58.4700 N.am  131  GLN131     -0.0878
    142  N          3.4440   41.6210   59.1680 N.am  132  ASN132     -0.1974
    143  CA         4.6390   42.4480   59.2240 C.3   132  ASN132      0.1688
    144  C          5.9400   41.6660   59.0920 C.2   132  ASN132      0.2292
    145  O          7.0250   42.1810   59.3850 O.2   132  ASN132     -0.2864
    146  CB         4.6700   43.2680   60.5150 C.3   132  ASN132      0.1181
    147  CG         3.5840   44.3200   60.5590 C.2   132  ASN132      0.2629
    148  OD1        3.2050   44.8600   59.5270 O.2   132  ASN132     -0.2716
    149  ND2        3.0930   44.6310   61.7550 N.am  132  ASN132     -0.0877
    150  N          8.2030   39.4650   56.3550 N.3   134  LEU134     -0.1245
    151  CA         8.3930   39.2370   54.9200 C.3   134  LEU134      0.1561
    152  C          9.2750   38.0190   54.6460 C.2   134  LEU134      0.2260
    153  O         10.2140   37.7550   55.3780 O.2   134  LEU134     -0.2867
    154  CB         9.0530   40.4750   54.2960 C.3   134  LEU134      0.0270
    155  CG         8.3660   41.8290   54.5030 C.3   134  LEU134      0.0019
    156  CD1        9.2750   42.9460   54.0220 C.3   134  LEU134      0.0001
    157  CD2        7.0370   41.8550   53.7530 C.3   134  LEU134      0.0001
    158  N          9.5200   43.5830   59.4140 N.3   144  ALA144     -0.1231
    159  CA         9.2010   44.7740   58.6410 C.3   144  ALA144      0.1694
    160  C          8.2880   45.6570   59.4730 C.2   144  ALA144      0.2592
    161  O          7.9580   45.3360   60.6170 O.2   144  ALA144     -0.2718
    162  CB         8.5260   44.4090   57.3340 C.3   144  ALA144      0.0304
    163  N          7.9010   46.7840   58.8870 N.am  145  ASP145     -0.1974
    164  CA         7.0220   47.7570   59.5110 C.3   145  ASP145      0.1709
    165  C          7.4520   48.2080   60.9080 C.2   145  ASP145      0.2293
    166  O          6.9020   47.7670   61.9090 O.2   145  ASP145     -0.2864
    167  CB         5.5920   47.2050   59.5720 C.3   145  ASP145      0.1436
    168  CG         4.5320   48.3120   59.6590 C.2   145  ASP145      0.3671
    169  OD1        4.7590   49.3380   60.3540 O.co2 145  ASP145     -0.2456
    170  OD2        3.4590   48.1430   59.0340 O.co2 145  ASP145     -0.2456
@<TRIPOS>BOND
     1   105   103   ar
     2   105   106   ar
     3   103   102   ar
     4    87    88   ar
     5    87    85   ar
     6    88    86   ar
     7   106   104   ar
     8    85    83   ar
     9    86    84   ar
    10     6     8    1
    11     6     5    1
    12     1     2    1
    13    83    84   ar
    14    83    82    1
    15   102   104   ar
    16   102   101    1
    17    82    79    1
    18     2     5    1
    19     2     3    1
    20     5     7    1
    21   101    98    1
    22    20    21    1
    23    16    15    2
    24   100    99    2
    25    98    99    1
    26    98    97    1
    27    21    22    1
    28    21    24    1
    29    15    14    1
    30    22    23    2
    31    79    78    1
    32    79    80    1
    33    99   107   am
    34     3     4    2
    35     3     9   am
    36    97    91   am
    37    78    71   am
    38    81    80    2
    39   132   131    1
    40    80    89   am
    41    92    91    2
    42    91    90    1
    43   115   113   am
    44     9    10    1
    45    61    60    2
    46    89    90    1
    47    14    13    1
    48    14    17    1
    49    90    93    1
    50   107   108    1
    51    12    11    2
    52    71    70    1
    53    71    72    2
    54   113   114    2
    55   113   112    1
    56   131   130    1
    57    18    17    1
    58    25    26    1
    59   111   108    1
    60   111   112    1
    61    70    69    1
    62    70    73    1
    63    60    69   am
    64    60    59    1
    65    17    19    1
    66   108   109    1
    67    10    11    1
    68    58    59    1
    69    26    27    1
    70    26    29    1
    71    27    28    2
    72    73    74    1
    73    93    94    1
    74   130   129    1
    75    59    62    1
    76    94    95    1
    77    94    96    1
    78   129   128    1
    79   109   110    2
    80   109   116   am
    81    62    63    1
    82   128   125    1
    83    74    75    1
    84    76    75   ar
    85    29    30    1
    86   116   117    1
    87   127   126    2
    88    75    77   ar
    89   126   125    1
    90   125   124    1
    91    64    63   ar
    92    64    66   ar
    93    63    65   ar
    94    30    31    1
    95   123   121   ar
    96   119   118    2
    97   117   120    1
    98   117   118    1
    99   157   155    1
   100    66    68   ar
   101   156   155    1
   102   121   120    1
   103   121   122   ar
   104    65    67   ar
   105   154   155    1
   106   154   151    1
   107    31    32    1
   108   152   151    1
   109   152   153    2
   110    32    33    1
   111   151   150    1
   112    56    55    1
   113    68    67   ar
   114    55    52    1
   115    55    57    1
   116    53    52    1
   117    53    54    2
   118    52    51    1
   119   136   135    2
   120   162   159    1
   121    42    40   ar
   122   135   134    1
   123   135   142   am
   124   137   134    1
   125   137   138    1
   126   134   133    1
   127   141   139   am
   128    50    48    1
   129   159   158    1
   130   159   160    1
   131    40    41   ar
   132    40    39    1
   133   163   160   am
   134   163   164    1
   135   170   168   ar
   136   144   143    1
   137   144   145    2
   138   142   143    1
   139    48    47    1
   140    48    49    1
   141   143   146    1
   142   138   139    1
   143   160   161    2
   144   164   167    1
   145   164   165    1
   146   148   147    2
   147   139   140    2
   148   167   168    1
   149   168   169   ar
   150    39    38    1
   151    47    44    1
   152    46    45    2
   153    45    44    1
   154   146   147    1
   155   147   149   am
   156    38    35    1
   157    37    36    2
   158   165   166    2
   159    36    35    1
   160    44    43    1
   161    35    34    1
