@<TRIPOS>MOLECULE
tmp/1e9jA00.pdb
 86 84 0 0 0
SMALL
GASTEIGER

@<TRIPOS>ATOM
      1  N         12.9240    5.7430    5.2910 N.3    36  ALA36      -0.1231
      2  CA        14.2850    5.4100    4.8910 C.3    36  ALA36       0.1694
      3  C         15.3100    6.0170    5.8440 C.2    36  ALA36       0.2592
      4  O         15.0560    7.0420    6.4770 O.2    36  ALA36      -0.2718
      5  CB        14.5450    5.8770    3.4670 C.3    36  ALA36       0.0304
      6  N         16.4690    5.3740    5.9390 N.am   37  TYR37      -0.1963
      7  CA        17.5400    5.8410    6.8090 C.3    37  TYR37       0.1756
      8  C         18.8890    5.3410    6.3070 C.2    37  TYR37       0.2461
      9  O         19.2500    4.1820    6.5080 O.2    37  TYR37      -0.2730
     10  CB        17.3030    5.3690    8.2450 C.3    37  TYR37       0.0574
     11  CG        18.4870    5.5880    9.1600 C.ar   37  TYR37      -0.0198
     12  CD1       18.7260    6.8310    9.7350 C.ar   37  TYR37      -0.0009
     13  CD2       19.3660    4.5520    9.4500 C.ar   37  TYR37      -0.0009
     14  CE1       19.8070    7.0340   10.5720 C.ar   37  TYR37       0.0417
     15  CE2       20.4490    4.7470   10.2870 C.ar   37  TYR37       0.0417
     16  CZ        20.6650    5.9890   10.8450 C.ar   37  TYR37       0.1957
     17  OH        21.7410    6.1880   11.6790 O.3    37  TYR37      -0.2866
     18  N         19.6470    6.2150    5.6310 N.am   38  PRO38      -0.2716
     19  CA        20.9610    5.8680    5.0790 C.3    38  PRO38       0.1536
     20  C         21.9660    5.4740    6.1570 C.2    38  PRO38       0.2599
     21  O         22.0160    6.0790    7.2270 O.2    38  PRO38      -0.2715
     22  CB        21.4140    7.1520    4.3750 C.3    38  PRO38       0.0310
     23  CG        20.1720    7.9560    4.1870 C.3    38  PRO38       0.0237
     24  CD        19.2790    7.6080    5.3420 C.3    38  PRO38       0.0939
     25  N         22.7700    4.4580    5.8570 N.am   39  THR39      -0.1951
     26  CA        23.7850    3.9790    6.7880 C.3    39  THR39       0.1897
     27  C         25.0680    3.6270    6.0430 C.2    39  THR39       0.2313
     28  O         25.0460    2.8780    5.0660 O.2    39  THR39      -0.2863
     29  CB        23.2750    2.7580    7.5570 C.3    39  THR39       0.1794
     30  OG1       21.8830    2.8580    7.7980 O.3    39  THR39      -0.2208
     31  CG2       23.9610    2.5640    8.8920 C.3    39  THR39       0.0378
     32  N         27.6890    1.5700    5.3060 N.3    41  LEU41      -0.1245
     33  CA        28.1400    0.1920    5.4700 C.3    41  LEU41       0.1561
     34  C         29.5600    0.0240    4.9330 C.2    41  LEU41       0.2260
     35  O         30.4010    0.9070    5.1010 O.2    41  LEU41      -0.2867
     36  CB        27.1860   -0.7690    4.7540 C.3    41  LEU41       0.0270
     37  CG        25.7050   -0.5840    5.0890 C.3    41  LEU41       0.0019
     38  CD1       24.9690    0.0470    3.9170 C.3    41  LEU41       0.0001
     39  CD2       25.0730   -1.9170    5.4630 C.3    41  LEU41       0.0001
     40  N         31.1660   -0.5680   -5.6000 N.3    47  MET47      -0.1230
     41  CA        30.6630    0.4840   -4.7200 C.3    47  MET47       0.1702
     42  C         29.4550   -0.0020   -3.9270 C.2    47  MET47       0.2592
     43  O         29.3190    0.2920   -2.7390 O.2    47  MET47      -0.2718
     44  CB        30.2860    1.7230   -5.5340 C.3    47  MET47       0.0401
     45  CG        31.4460    2.3050   -6.3260 C.3    47  MET47       0.0596
     46  SD        31.8060    4.0130   -5.8760 S.3    47  MET47      -0.1393
     47  CE        31.5910    3.9460   -4.0990 C.3    47  MET47       0.0692
     48  N         28.5850   -0.7520   -4.5940 N.am   48  LEU48      -0.1966
     49  CA        27.3910   -1.2880   -3.9570 C.3    48  LEU48       0.1728
     50  C         27.3620   -2.8100   -4.0530 C.2    48  LEU48       0.2616
     51  O         28.1580   -3.4120   -4.7740 O.2    48  LEU48      -0.2715
     52  CB        26.1320   -0.6980   -4.6020 C.3    48  LEU48       0.0311
     53  CG        26.0280   -0.8720   -6.1210 C.3    48  LEU48       0.0022
     54  CD1       26.9910    0.0640   -6.8350 C.3    48  LEU48       0.0001
     55  CD2       26.2930   -2.3170   -6.5160 C.3    48  LEU48       0.0001
     56  N         26.4370   -3.4270   -3.3270 N.am   49  VAL49      -0.1963
     57  CA        26.3000   -4.8780   -3.3370 C.3    49  VAL49       0.1727
     58  C         24.8410   -5.2830   -3.5150 C.2    49  VAL49       0.2616
     59  O         23.9700   -4.8500   -2.7590 O.2    49  VAL49      -0.2715
     60  CB        26.8460   -5.5070   -2.0430 C.3    49  VAL49       0.0290
     61  CG1       28.2940   -5.9310   -2.2300 C.3    49  VAL49       0.0023
     62  CG2       26.7110   -4.5360   -0.8790 C.3    49  VAL49       0.0023
     63  N         24.5800   -6.1090   -4.5220 N.am   50  GLN50      -0.1977
     64  CA        23.2240   -6.5640   -4.8030 C.3    50  GLN50       0.1601
     65  C         22.3270   -5.3820   -5.1570 C.2    50  GLN50       0.2287
     66  O         22.7910   -4.2460   -5.2520 O.2    50  GLN50      -0.2864
     67  CB        22.6560   -7.3190   -3.5990 C.3    50  GLN50       0.0394
     68  CG        23.3070   -8.6730   -3.3670 C.3    50  GLN50       0.0908
     69  CD        24.7660   -8.6990   -3.7790 C.2    50  GLN50       0.2608
     70  OE1       25.6270   -8.1550   -3.0890 O.2    50  GLN50      -0.2717
     71  NE2       25.0530   -9.3330   -4.9120 N.am   50  GLN50      -0.0878
     72  N         18.9590   -3.0310   -4.2430 N.3    52  ASN52      -0.1225
     73  CA        18.0780   -2.6150   -3.1570 C.3    52  ASN52       0.1785
     74  C         17.1890   -1.4560   -3.5980 C.2    52  ASN52       0.2597
     75  O         17.5950   -0.6250   -4.4100 O.2    52  ASN52      -0.2718
     76  CB        18.8990   -2.2130   -1.9290 C.3    52  ASN52       0.1169
     77  CG        19.7400   -0.9720   -2.1660 C.2    52  ASN52       0.2627
     78  OD1       19.9220   -0.5400   -3.3030 O.2    52  ASN52      -0.2716
     79  ND2       20.2560   -0.3980   -1.0820 N.am   52  ASN52      -0.0877
     80  N         15.9720   -1.4070   -3.0610 N.am   53  VAL53      -0.1980
     81  CA        15.0300   -0.3490   -3.4080 C.3    53  VAL53       0.1595
     82  C         14.9120    0.6760   -2.2850 C.2    53  VAL53       0.2287
     83  O         15.2850    0.4080   -1.1430 O.2    53  VAL53      -0.2864
     84  CB        13.6310   -0.9160   -3.7210 C.3    53  VAL53       0.0276
     85  CG1       13.7010   -1.9140   -4.8670 C.3    53  VAL53       0.0022
     86  CG2       13.0210   -1.5550   -2.4830 C.3    53  VAL53       0.0022
@<TRIPOS>BOND
     1    54    53    1
     2    55    53    1
     3    45    46    1
     4    45    44    1
     5    53    52    1
     6    46    47    1
     7    40    41    1
     8    44    41    1
     9    66    65    2
    10    65    64    1
    11    71    69   am
    12    85    84    1
    13    64    63    1
    14    64    67    1
    15    51    50    2
    16    41    42    1
    17    52    49    1
    18    48    49    1
    19    48    42   am
    20    63    58   am
    21    75    74    2
    22    72    73    1
    23    50    49    1
    24    50    56   am
    25    42    43    2
    26    69    68    1
    27    69    70    2
    28    84    81    1
    29    84    86    1
    30    67    68    1
    31    74    73    1
    32    74    80   am
    33    58    57    1
    34    58    59    2
    35    81    80    1
    36    81    82    1
    37    57    56    1
    38    57    60    1
    39    78    77    2
    40    73    76    1
    41    82    83    2
    42    61    60    1
    43    77    76    1
    44    77    79   am
    45    60    62    1
    46     5     2    1
    47    38    37    1
    48    23    22    1
    49    23    24    1
    50    22    19    1
    51    36    37    1
    52    36    33    1
    53     2     1    1
    54     2     3    1
    55    34    35    2
    56    34    33    1
    57    28    27    2
    58    19    18    1
    59    19    20    1
    60    37    39    1
    61    32    33    1
    62    24    18    1
    63    18     8   am
    64     3     6   am
    65     3     4    2
    66    25    20   am
    67    25    26    1
    68     6     7    1
    69    27    26    1
    70    20    21    2
    71     8     9    2
    72     8     7    1
    73    26    29    1
    74     7    10    1
    75    29    30    1
    76    29    31    1
    77    10    11    1
    78    11    13   ar
    79    11    12   ar
    80    13    15   ar
    81    12    14   ar
    82    15    16   ar
    83    14    16   ar
    84    16    17    1
