@<TRIPOS>MOLECULE
tmp/1e9jA01.pdb
 91 88 0 0 0
SMALL
GASTEIGER

@<TRIPOS>ATOM
      1  N         -8.6020    3.2260    2.2180 N.3    12  LEU12      -0.1245
      2  CA        -9.6470    2.8470    1.2910 C.3    12  LEU12       0.1561
      3  C        -10.1420    4.0360    0.5010 C.2    12  LEU12       0.2260
      4  O        -10.3550    5.1180    1.0460 O.2    12  LEU12      -0.2867
      5  CB       -10.7950    2.2050    2.0400 C.3    12  LEU12       0.0270
      6  CG       -10.4820    0.8250    2.5950 C.3    12  LEU12       0.0019
      7  CD1       -9.1690    0.8460    3.3550 C.3    12  LEU12       0.0001
      8  CD2      -11.6150    0.3620    3.4890 C.3    12  LEU12       0.0001
      9  N        -19.8050    1.3870   -6.5960 N.3    18  PHE18      -0.1241
     10  CA       -20.7200    0.7410   -5.6690 C.3    18  PHE18       0.1605
     11  C        -21.2740    1.7350   -4.6540 C.2    18  PHE18       0.2264
     12  O        -22.2150    1.4270   -3.9220 O.2    18  PHE18      -0.2867
     13  CB       -20.0000   -0.3860   -4.9340 C.3    18  PHE18       0.0534
     14  CG       -20.7950   -1.6550   -4.8460 C.ar   18  PHE18      -0.0203
     15  CD1      -22.0330   -1.6650   -4.2290 C.ar   18  PHE18      -0.0042
     16  CD2      -20.3070   -2.8350   -5.3840 C.ar   18  PHE18      -0.0042
     17  CE1      -22.7760   -2.8280   -4.1520 C.ar   18  PHE18      -0.0003
     18  CE2      -21.0440   -4.0030   -5.3080 C.ar   18  PHE18      -0.0003
     19  CZ       -22.2810   -3.9990   -4.6920 C.ar   18  PHE18      -0.0000
     20  N        -26.3990    3.9040    0.9530 N.3    22  GLY22      -0.1210
     21  CA       -26.5260    2.7480    1.8140 C.3    22  GLY22       0.1956
     22  C        -25.3730    1.7780    1.6500 C.2    22  GLY22       0.2612
     23  O        -25.2290    0.8410    2.4350 O.2    22  GLY22      -0.2717
     24  N        -24.5500    1.9990    0.6270 N.am   23  ALA23      -0.1966
     25  CA       -23.4090    1.1250    0.3750 C.3    23  ALA23       0.1713
     26  C        -22.3080    1.8370   -0.3810 C.2    23  ALA23       0.2458
     27  O        -22.3820    2.0500   -1.5910 O.2    23  ALA23      -0.2730
     28  CB       -23.8530   -0.1180   -0.3710 C.3    23  ALA23       0.0333
     29  N        -21.2830    2.2360    0.3650 N.am   24  PRO24      -0.2716
     30  CA       -20.1360    2.9600   -0.1230 C.3    24  PRO24       0.1536
     31  C        -18.8720    2.1190   -0.1800 C.2    24  PRO24       0.2598
     32  O        -17.9090    2.3830    0.5380 O.2    24  PRO24      -0.2715
     33  CB       -20.0220    4.0210    0.9630 C.3    24  PRO24       0.0310
     34  CG       -20.4990    3.3400    2.2230 C.3    24  PRO24       0.0237
     35  CD       -21.1690    2.0580    1.8040 C.3    24  PRO24       0.0939
     36  N        -18.8880    1.1140   -1.0390 N.am   25  ILE25      -0.1964
     37  CA       -17.7700    0.2280   -1.2230 C.3    25  ILE25       0.1727
     38  C        -16.4250    0.9430   -1.1780 C.2    25  ILE25       0.2616
     39  O        -16.3510    2.1230   -0.8460 O.2    25  ILE25      -0.2715
     40  CB       -17.9580   -0.5100   -2.5350 C.3    25  ILE25       0.0290
     41  CG1      -19.1690   -1.3890   -2.3830 C.3    25  ILE25       0.0022
     42  CG2      -16.7470   -1.3600   -2.8470 C.3    25  ILE25       0.0023
     43  CD1      -19.0390   -2.2580   -1.1700 C.3    25  ILE25       0.0001
     44  N        -15.3530    0.1950   -1.4300 N.am   26  LEU26      -0.1977
     45  CA       -14.0130    0.7350   -1.3180 C.3    26  LEU26       0.1596
     46  C        -13.0090    0.0910   -2.2320 C.2    26  LEU26       0.2287
     47  O        -13.3340   -0.5120   -3.2490 O.2    26  LEU26      -0.2864
     48  CB       -13.6000    0.4920    0.1060 C.3    26  LEU26       0.0297
     49  CG       -14.7680    0.0410    0.9510 C.3    26  LEU26       0.0022
     50  CD1      -14.3080   -0.8330    2.0960 C.3    26  LEU26       0.0001
     51  CD2      -15.5510    1.2380    1.4630 C.3    26  LEU26       0.0001
     52  N        -14.8730   -6.6750    2.9910 N.3    66  ASN66      -0.1240
     53  CA       -16.3020   -6.9430    2.9530 C.3    66  ASN66       0.1653
     54  C        -16.6980   -7.0960    1.5090 C.2    66  ASN66       0.2266
     55  O        -17.8200   -6.8100    1.0930 O.2    66  ASN66      -0.2867
     56  CB       -17.1010   -5.8420    3.6260 C.3    66  ASN66       0.1155
     57  CG       -17.9590   -6.3550    4.7640 C.2    66  ASN66       0.2627
     58  OD1      -17.6060   -7.3220    5.4390 O.2    66  ASN66      -0.2716
     59  ND2      -19.0970   -5.7070    4.9770 N.am   66  ASN66      -0.0877
     60  N        -17.2980   -6.8470   -2.2550 N.3    68  VAL68      -0.1245
     61  CA       -18.5650   -6.5770   -2.9160 C.3    68  VAL68       0.1561
     62  C        -18.3810   -6.5880   -4.4240 C.2    68  VAL68       0.2260
     63  O        -18.8040   -5.6660   -5.1210 O.2    68  VAL68      -0.2867
     64  CB       -19.1390   -5.2120   -2.4920 C.3    68  VAL68       0.0252
     65  CG1      -19.1230   -5.0670   -0.9770 C.3    68  VAL68       0.0019
     66  CG2      -18.3600   -4.0780   -3.1510 C.3    68  VAL68       0.0019
     67  N        -14.4690   -5.0090    0.0170 N.3    78  ASN78      -0.1225
     68  CA       -15.0510   -3.9270    0.7840 C.3    78  ASN78       0.1785
     69  C        -14.2710   -3.7440    2.0610 C.2    78  ASN78       0.2597
     70  O        -14.7270   -4.0510    3.1630 O.2    78  ASN78      -0.2718
     71  CB       -16.5320   -4.0980    1.0520 C.3    78  ASN78       0.1169
     72  CG       -17.0820   -2.7920    1.5620 C.2    78  ASN78       0.2627
     73  OD1      -16.9520   -1.7600    0.9080 O.2    78  ASN78      -0.2716
     74  ND2      -17.6960   -2.8250    2.7200 N.am   78  ASN78      -0.0877
     75  N        -13.0520   -3.2910    1.8580 N.am   79  HIS79      -0.1961
     76  CA       -12.0930   -3.0960    2.9180 C.3    79  HIS79       0.1787
     77  C        -12.6700   -2.5010    4.1740 C.2    79  HIS79       0.2620
     78  O        -13.1600   -1.3770    4.2070 O.2    79  HIS79      -0.2715
     79  CB       -10.9340   -2.2610    2.4120 C.3    79  HIS79       0.0785
     80  CG       -10.2890   -2.9100    1.2520 C.ar   79  HIS79       0.0821
     81  ND1       -9.2810   -2.3590    0.5120 N.ar   79  HIS79      -0.2267
     82  CD2      -10.5760   -4.0970    0.6880 C.ar   79  HIS79       0.1154
     83  CE1       -8.9900   -3.2120   -0.4790 C.ar   79  HIS79       0.1986
     84  NE2       -9.7500   -4.2910   -0.4150 N.ar   79  HIS79      -0.2212
     85  N        -12.5550   -3.2780    5.2190 N.am   80  THR80      -0.1951
     86  CA       -13.0030   -2.8690    6.5330 C.3    80  THR80       0.1897
     87  C        -11.7920   -2.4950    7.3680 C.2    80  THR80       0.2313
     88  O        -11.9010   -1.8220    8.3930 O.2    80  THR80      -0.2863
     89  CB       -13.7920   -3.9900    7.1860 C.3    80  THR80       0.1794
     90  OG1      -12.9500   -4.8080    7.9780 O.3    80  THR80      -0.2208
     91  CG2      -14.4700   -4.8660    6.1660 C.3    80  THR80       0.0378
@<TRIPOS>BOND
     1     9    10    1
     2    10    13    1
     3    10    11    1
     4    16    18   ar
     5    16    14   ar
     6    18    19   ar
     7    63    62    2
     8    13    14    1
     9    14    15   ar
    10    19    17   ar
    11    11    12    2
    12    62    61    1
    13    15    17   ar
    14    47    46    2
    15    66    64    1
    16    61    64    1
    17    61    60    1
    18    42    40    1
    19    40    41    1
    20    40    37    1
    21    64    65    1
    22    41    43    1
    23    46    45    1
    24    27    26    2
    25    44    45    1
    26    44    38   am
    27    45    48    1
    28    37    38    1
    29    37    36    1
    30    38    39    2
    31    36    31   am
    32    83    84   ar
    33    83    81   ar
    34    84    82   ar
    35    26    29   am
    36    26    25    1
    37    28    25    1
    38    31    30    1
    39    31    32    2
    40    30    29    1
    41    30    33    1
    42    67    68    1
    43    48    49    1
    44    29    35    1
    45    25    24    1
    46     3     4    2
    47     3     2    1
    48    81    80   ar
    49    24    22   am
    50    82    80   ar
    51    68    71    1
    52    68    69    1
    53    73    72    2
    54    49    51    1
    55    49    50    1
    56    20    21    1
    57    33    34    1
    58    71    72    1
    59    55    54    2
    60    80    79    1
    61     2     5    1
    62     2     1    1
    63    54    53    1
    64    72    74   am
    65    22    21    1
    66    22    23    2
    67    35    34    1
    68    75    69   am
    69    75    76    1
    70     5     6    1
    71    69    70    2
    72    79    76    1
    73     6     7    1
    74     6     8    1
    75    76    77    1
    76    53    52    1
    77    53    56    1
    78    56    57    1
    79    77    78    2
    80    77    85   am
    81    57    59   am
    82    57    58    2
    83    85    86    1
    84    91    89    1
    85    86    89    1
    86    86    87    1
    87    89    90    1
    88    87    88    2
