@<TRIPOS>MOLECULE
tmp/1e9lA00.pdb
 107 105 0 0 0
SMALL
GASTEIGER

@<TRIPOS>ATOM
      1  N         34.4560    6.2820   14.2580 N.3     6  TYR6       -0.1241
      2  CA        34.6050    6.9060   12.9680 C.3     6  TYR6        0.1605
      3  C         33.8700    6.1500   11.8710 C.2     6  TYR6        0.2264
      4  O         33.9200    4.9220   11.8030 O.2     6  TYR6       -0.2867
      5  CB        36.0750    6.9460   12.6050 C.3     6  TYR6        0.0534
      6  CG        36.7940    8.2080   12.9780 C.ar    6  TYR6       -0.0201
      7  CD1       37.5930    8.2630   14.1180 C.ar    6  TYR6       -0.0009
      8  CD2       36.7470    9.3230   12.1490 C.ar    6  TYR6       -0.0009
      9  CE1       38.3340    9.3970   14.4180 C.ar    6  TYR6        0.0417
     10  CE2       37.4820   10.4600   12.4380 C.ar    6  TYR6        0.0417
     11  CZ        38.2750   10.4920   13.5690 C.ar    6  TYR6        0.1957
     12  OH        39.0180   11.6160   13.8300 O.3     6  TYR6       -0.2866
     13  N         35.0910   12.6110    6.3210 N.3    37  PHE37      -0.1241
     14  CA        35.6780   13.9370    6.1510 C.3    37  PHE37       0.1605
     15  C         34.8110   14.8670    5.3140 C.2    37  PHE37       0.2264
     16  O         34.1370   14.4410    4.3730 O.2    37  PHE37      -0.2867
     17  CB        37.0620   13.8400    5.4980 C.3    37  PHE37       0.0534
     18  CG        38.1090   13.1930    6.3650 C.ar   37  PHE37      -0.0203
     19  CD1       38.9370   12.2060    5.8530 C.ar   37  PHE37      -0.0042
     20  CD2       38.2690   13.5740    7.6900 C.ar   37  PHE37      -0.0042
     21  CE1       39.9110   11.6090    6.6480 C.ar   37  PHE37      -0.0003
     22  CE2       39.2380   12.9820    8.4900 C.ar   37  PHE37      -0.0003
     23  CZ        40.0610   11.9950    7.9660 C.ar   37  PHE37      -0.0000
     24  N         42.3330   15.3900    7.7950 N.3    77  GLY77      -0.1210
     25  CA        42.7630   14.0580    7.4260 C.3    77  GLY77       0.1956
     26  C         44.1600   14.0800    6.8480 C.2    77  GLY77       0.2611
     27  O         44.7440   15.1400    6.6190 O.2    77  GLY77      -0.2717
     28  N         44.7120   12.9020    6.5980 N.am   78  TRP78      -0.1976
     29  CA        46.0500   12.8300    6.0530 C.3    78  TRP78       0.1640
     30  C         46.1510   13.2590    4.5890 C.2    78  TRP78       0.2290
     31  O         47.0520   14.0130    4.2240 O.2    78  TRP78      -0.2864
     32  CB        46.6200   11.4220    6.2280 C.3    78  TRP78       0.0576
     33  CG        48.0830   11.4650    6.4460 C.ar   78  TRP78       0.0006
     34  CD1       48.7440   12.1000    7.4650 C.ar   78  TRP78       0.0946
     35  CD2       49.0930   10.9110    5.5960 C.ar   78  TRP78       0.0152
     36  NE1       50.1050   11.9790    7.2980 N.ar   78  TRP78      -0.2442
     37  CE2       50.3470   11.2530    6.1600 C.ar   78  TRP78       0.0810
     38  CE3       49.0600   10.1630    4.4130 C.ar   78  TRP78       0.0012
     39  CZ2       51.5560   10.8710    5.5790 C.ar   78  TRP78       0.0191
     40  CZ3       50.2590    9.7830    3.8400 C.ar   78  TRP78       0.0001
     41  CH2       51.4900   10.1370    4.4220 C.ar   78  TRP78       0.0015
     42  N         40.7060   17.9490   12.1680 N.3   117  ASP117     -0.1239
     43  CA        41.6650   17.1620   11.9590 C.3   117  ASP117      0.1674
     44  C         42.8460   17.4970   11.1080 C.2   117  ASP117      0.2266
     45  O         43.2550   16.8700   10.1260 O.2   117  ASP117     -0.2867
     46  CB        40.9790   16.0290   11.2130 C.3   117  ASP117      0.1410
     47  CG        41.3260   14.6770   11.7710 C.2   117  ASP117      0.3668
     48  OD1       42.5130   14.2730   11.6730 O.co2 117  ASP117     -0.2456
     49  OD2       40.3920   14.0260   12.3080 O.co2 117  ASP117     -0.2456
     50  N         45.9280   17.6210    9.8880 N.3   119  GLN119     -0.1245
     51  CA        47.0640   16.7390   10.0370 C.3   119  GLN119      0.1566
     52  C         48.3790   17.4720   10.1080 C.2   119  GLN119      0.2260
     53  O         49.0340   17.7870    9.1000 O.2   119  GLN119     -0.2867
     54  CB        47.1110   15.6720    8.9530 C.3   119  GLN119      0.0367
     55  CG        47.6470   14.3610    9.5820 C.3   119  GLN119      0.0905
     56  CD        46.5730   13.3560    9.9440 C.2   119  GLN119      0.2608
     57  OE1       45.4620   13.7170   10.3310 O.2   119  GLN119     -0.2717
     58  NE2       46.9030   12.0800    9.8220 N.am  119  GLN119     -0.0878
     59  N         41.9790   16.1980   16.6550 N.3   162  THR162     -0.1218
     60  CA        42.8950   15.0760   16.7750 C.3   162  THR162      0.1862
     61  C         44.2040   15.6460   17.3190 C.2   162  THR162      0.2287
     62  O         44.4270   16.8590   17.3010 O.2   162  THR162     -0.2866
     63  CB        43.1540   14.3920   15.4190 C.3   162  THR162      0.1770
     64  OG1       43.8900   15.2740   14.5700 O.3   162  THR162     -0.2211
     65  CG2       41.8340   14.0230   14.7510 C.3   162  THR162      0.0375
     66  N         45.9140   10.1970   18.2740 N.3   189  MET189     -0.1245
     67  CA        46.2880    9.2240   17.2590 C.3   189  MET189      0.1570
     68  C         47.3240    8.2130   17.7530 C.2   189  MET189      0.2261
     69  O         48.4980    8.2710   17.3860 O.2   189  MET189     -0.2867
     70  CB        46.8130    9.9730   16.0280 C.3   189  MET189      0.0387
     71  CG        45.6930   10.5720   15.1620 C.3   189  MET189      0.0595
     72  SD        46.0930   12.1840   14.4570 S.3   189  MET189     -0.1393
     73  CE        47.6360   11.8350   13.6790 C.3   189  MET189      0.0692
     74  N         48.0900    5.2190   16.9820 N.3   191  TYR191     -0.1227
     75  CA        48.1100    4.1520   15.9940 C.3   191  TYR191      0.1736
     76  C         49.0230    4.5910   14.8590 C.2   191  TYR191      0.2595
     77  O         49.2650    5.7910   14.6850 O.2   191  TYR191     -0.2718
     78  CB        46.7020    3.8680   15.4740 C.3   191  TYR191      0.0548
     79  CG        45.8530    5.1000   15.2520 C.ar  191  TYR191     -0.0200
     80  CD1       46.0850    5.9340   14.1630 C.ar  191  TYR191     -0.0009
     81  CD2       44.7970    5.4170   16.1150 C.ar  191  TYR191     -0.0009
     82  CE1       45.2930    7.0480   13.9340 C.ar  191  TYR191      0.0417
     83  CE2       43.9980    6.5320   15.8930 C.ar  191  TYR191      0.0417
     84  CZ        44.2540    7.3400   14.7960 C.ar  191  TYR191      0.1957
     85  OH        43.4770    8.4430   14.5390 O.3   191  TYR191     -0.2866
     86  N         49.5150    3.6190   14.0920 N.am  192  ASP192     -0.1974
     87  CA        50.4400    3.8550   12.9820 C.3   192  ASP192      0.1709
     88  C         51.7960    4.2290   13.5360 C.2   192  ASP192      0.2293
     89  O         52.5690    4.9080   12.8750 O.2   192  ASP192     -0.2864
     90  CB        49.9820    4.9870   12.0640 C.3   192  ASP192      0.1436
     91  CG        48.6550    4.7140   11.4230 C.2   192  ASP192      0.3671
     92  OD1       48.4620    3.6480   10.8220 O.co2 192  ASP192     -0.2456
     93  OD2       47.7850    5.5840   11.5220 O.co2 192  ASP192     -0.2456
     94  N         38.9050    3.7000   15.1700 N.3   339  TRP339     -0.1241
     95  CA        39.3580    4.1900   13.8830 C.3   339  TRP339      0.1605
     96  C         39.7830    3.1010   12.9020 C.2   339  TRP339      0.2264
     97  O         40.8900    2.5690   13.0100 O.2   339  TRP339     -0.2867
     98  CB        40.5400    5.1310   14.1130 C.3   339  TRP339      0.0550
     99  CG        41.2500    5.5180   12.8660 C.ar  339  TRP339      0.0003
    100  CD1       42.5440    5.2430   12.5410 C.ar  339  TRP339      0.0946
    101  CD2       40.7090    6.2750   11.7830 C.ar  339  TRP339      0.0152
    102  NE1       42.8460    5.7870   11.3130 N.ar  339  TRP339     -0.2442
    103  CE2       41.7400    6.4270   10.8230 C.ar  339  TRP339      0.0810
    104  CE3       39.4570    6.8410   11.5240 C.ar  339  TRP339      0.0012
    105  CZ2       41.5550    7.1240    9.6210 C.ar  339  TRP339      0.0191
    106  CZ3       39.2740    7.5370   10.3310 C.ar  339  TRP339      0.0001
    107  CH2       40.3240    7.6700    9.3940 C.ar  339  TRP339      0.0015
@<TRIPOS>BOND
     1    40    38   ar
     2    40    41   ar
     3    31    30    2
     4    16    15    2
     5    38    35   ar
     6    41    39   ar
     7    30    29    1
     8    15    14    1
     9    17    14    1
    10    17    18    1
    11    39    37   ar
    12    35    37   ar
    13    35    33   ar
    14    19    18   ar
    15    19    21   ar
    16    29    32    1
    17    29    28    1
    18    14    13    1
    19    37    36   ar
    20    32    33    1
    21    18    20   ar
    22    33    34   ar
    23    28    26   am
    24    27    26    2
    25    21    23   ar
    26    26    25    1
    27    36    34   ar
    28    25    24    1
    29    20    22   ar
    30    23    22   ar
    31    54    55    1
    32    54    51    1
    33    53    52    2
    34   107   105   ar
    35   107   106   ar
    36    55    56    1
    37   105   103   ar
    38    58    56   am
    39    50    51    1
    40    56    57    2
    41    51    52    1
    42    45    44    2
    43   106   104   ar
    44    92    91   ar
    45   103   102   ar
    46   103   101   ar
    47    44    43    1
    48    46    47    1
    49    46    43    1
    50   102   100   ar
    51    91    93   ar
    52    91    90    1
    53   104   101   ar
    54    48    47   ar
    55    47    49   ar
    56   101    99   ar
    57     4     3    2
    58     3     2    1
    59    43    42    1
    60    90    87    1
    61     8    10   ar
    62     8     6   ar
    63    10    11   ar
    64   100    99   ar
    65     5     2    1
    66     5     6    1
    67    99    98    1
    68    89    88    2
    69    96    97    2
    70    96    95    1
    71     2     1    1
    72     6     7   ar
    73    87    88    1
    74    87    86    1
    75    11    12    1
    76    11     9   ar
    77    73    72    1
    78    95    98    1
    79    95    94    1
    80    82    80   ar
    81    82    84   ar
    82    86    76   am
    83     7     9   ar
    84    80    79   ar
    85    72    71    1
    86    85    84    1
    87    64    63    1
    88    77    76    2
    89    65    63    1
    90    84    83   ar
    91    76    75    1
    92    71    70    1
    93    79    78    1
    94    79    81   ar
    95    63    60    1
    96    78    75    1
    97    83    81   ar
    98    75    74    1
    99    70    67    1
   100    59    60    1
   101    60    61    1
   102    67    68    1
   103    67    66    1
   104    62    61    2
   105    69    68    2
