@<TRIPOS>MOLECULE
tmp/1e9vA00.pdb
 93 91 0 0 0
SMALL
GASTEIGER

@<TRIPOS>ATOM
      1  N         67.8910   42.9340   19.3010 N.3   227  THR227     -0.1203
      2  CA        68.9280   41.9710   18.9900 C.3   227  THR227      0.1994
      3  C         69.1340   41.8490   17.4790 C.2   227  THR227      0.2618
      4  O         68.1770   41.8070   16.7160 O.2   227  THR227     -0.2717
      5  CB        68.5290   40.5630   19.5070 C.3   227  THR227      0.1784
      6  OG1       68.2080   40.6450   20.9030 O.3   227  THR227     -0.2211
      7  CG2       69.6580   39.5720   19.2830 C.3   227  THR227      0.0376
      8  N         70.4120   41.8090   17.0750 N.am  228  GLN228     -0.1965
      9  CA        70.7020   41.5970   15.6520 C.3   228  GLN228      0.1733
     10  C         70.9550   40.0970   15.5090 C.2   228  GLN228      0.2616
     11  O         71.7940   39.5820   16.2420 O.2   228  GLN228     -0.2715
     12  CB        71.9190   42.4130   15.2090 C.3   228  GLN228      0.0408
     13  CG        72.1650   42.3490   13.7050 C.3   228  GLN228      0.0908
     14  CD        73.3660   43.1810   13.2950 C.2   228  GLN228      0.2608
     15  OE1       74.0270   43.7970   14.1440 O.2   228  GLN228     -0.2717
     16  NE2       73.7010   43.2290   12.0160 N.am  228  GLN228     -0.0878
     17  N         70.1830   39.3940   14.6980 N.am  229  VAL229     -0.1963
     18  CA        70.3020   37.9360   14.6220 C.3   229  VAL229      0.1727
     19  C         71.0010   37.5000   13.3410 C.2   229  VAL229      0.2616
     20  O         70.5140   37.8830   12.2660 O.2   229  VAL229     -0.2715
     21  CB        68.8800   37.3190   14.6370 C.3   229  VAL229      0.0290
     22  CG1       68.9110   35.8090   14.5050 C.3   229  VAL229      0.0023
     23  CG2       68.1450   37.7140   15.9290 C.3   229  VAL229      0.0023
     24  N         72.0480   36.6930   13.4630 N.am  230  ASN230     -0.1972
     25  CA        72.7260   36.2060   12.2560 C.3   230  ASN230      0.1688
     26  C         71.8630   35.1740   11.5410 C.2   230  ASN230      0.2292
     27  O         71.2820   34.3030   12.2080 O.2   230  ASN230     -0.2864
     28  CB        74.0530   35.5420   12.6510 C.3   230  ASN230      0.1181
     29  CG        74.9420   35.1510   11.4870 C.2   230  ASN230      0.2629
     30  OD1       74.7550   35.6200   10.3770 O.2   230  ASN230     -0.2716
     31  ND2       75.9180   34.2780   11.7190 N.am  230  ASN230     -0.0877
     32  N         66.1190   34.2130   20.2260 N.3   273  ASN273     -0.1240
     33  CA        67.3030   35.0250   20.0320 C.3   273  ASN273      0.1653
     34  C         67.2130   36.3630   20.7570 C.2   273  ASN273      0.2266
     35  O         68.2250   37.0230   20.9730 O.2   273  ASN273     -0.2867
     36  CB        67.5280   35.3270   18.5460 C.3   273  ASN273      0.1155
     37  CG        67.9970   34.1530   17.7240 C.2   273  ASN273      0.2627
     38  OD1       69.2200   33.9480   17.5970 O.2   273  ASN273     -0.2716
     39  ND2       67.0890   33.3560   17.1450 N.am  273  ASN273     -0.0877
     40  N         69.1370   33.6230   26.9020 N.3   278  PHE278     -0.1227
     41  CA        69.6780   32.7730   25.8500 C.3   278  PHE278      0.1736
     42  C         70.7980   33.4450   25.0800 C.2   278  PHE278      0.2595
     43  O         71.6790   32.7740   24.5360 O.2   278  PHE278     -0.2718
     44  CB        68.5600   32.3730   24.8830 C.3   278  PHE278      0.0547
     45  CG        67.4010   31.6640   25.5420 C.ar  278  PHE278     -0.0202
     46  CD1       67.5410   30.8570   26.6420 C.ar  278  PHE278     -0.0042
     47  CD2       66.1320   31.8410   24.9870 C.ar  278  PHE278     -0.0042
     48  CE1       66.4570   30.2360   27.2350 C.ar  278  PHE278     -0.0003
     49  CE2       65.0360   31.2120   25.5670 C.ar  278  PHE278     -0.0003
     50  CZ        65.1940   30.4020   26.6730 C.ar  278  PHE278     -0.0000
     51  N         70.8470   34.7630   25.1160 N.am  279  LYS279     -0.1980
     52  CA        71.8950   35.5410   24.4530 C.3   279  LYS279      0.1596
     53  C         73.2610   35.3710   25.0990 C.2   279  LYS279      0.2287
     54  O         74.2910   35.7640   24.5080 O.2   279  LYS279     -0.2864
     55  CB        71.5220   37.0270   24.3880 C.3   279  LYS279      0.0298
     56  CG        70.3480   37.3380   23.4770 C.3   279  LYS279      0.0038
     57  CD        69.9060   38.7920   23.4740 C.3   279  LYS279      0.0206
     58  CE        70.8910   39.7270   22.8080 C.3   279  LYS279      0.1093
     59  NZ        70.3200   41.0920   22.6230 N.3   279  LYS279     -0.1314
     60  N         74.8570   32.5230   25.5370 N.3   281  TYR281     -0.1241
     61  CA        75.5700   31.3590   25.0080 C.3   281  TYR281      0.1605
     62  C         76.1570   31.6410   23.6410 C.2   281  TYR281      0.2264
     63  O         75.4340   31.7540   22.6350 O.2   281  TYR281     -0.2867
     64  CB        74.5490   30.2240   24.8480 C.3   281  TYR281      0.0534
     65  CG        73.9410   29.6680   26.1070 C.ar  281  TYR281     -0.0201
     66  CD1       74.6460   28.7020   26.8240 C.ar  281  TYR281     -0.0009
     67  CD2       72.6880   30.0650   26.5600 C.ar  281  TYR281     -0.0009
     68  CE1       74.1160   28.1600   27.9840 C.ar  281  TYR281      0.0417
     69  CE2       72.1530   29.5190   27.7190 C.ar  281  TYR281      0.0417
     70  CZ        72.8650   28.5720   28.4130 C.ar  281  TYR281      0.1957
     71  OH        72.3680   27.9970   29.5610 O.3   281  TYR281     -0.2866
     72  N         75.0640   29.6310   20.3950 N.3   284  PHE284     -0.1227
     73  CA        73.7230   29.8770   19.8190 C.3   284  PHE284      0.1736
     74  C         73.9810   30.7950   18.6390 C.2   284  PHE284      0.2595
     75  O         74.1950   32.0030   18.7640 O.2   284  PHE284     -0.2718
     76  CB        72.8070   30.4520   20.8890 C.3   284  PHE284      0.0547
     77  CG        71.4160   30.8820   20.5000 C.ar  284  PHE284     -0.0202
     78  CD1       70.8640   30.5580   19.2660 C.ar  284  PHE284     -0.0042
     79  CD2       70.6580   31.6200   21.3960 C.ar  284  PHE284     -0.0042
     80  CE1       69.5880   30.9620   18.9230 C.ar  284  PHE284     -0.0003
     81  CE2       69.3680   32.0150   21.0670 C.ar  284  PHE284     -0.0003
     82  CZ        68.8270   31.6730   19.8360 C.ar  284  PHE284     -0.0000
     83  N         74.0300   30.2480   17.4320 N.am  285  VAL285     -0.1966
     84  CA        74.4470   30.9790   16.2470 C.3   285  VAL285      0.1727
     85  C         73.4760   32.0210   15.7100 C.2   285  VAL285      0.2616
     86  O         73.8710   33.1270   15.3500 O.2   285  VAL285     -0.2715
     87  CB        74.7650   29.9610   15.1150 C.3   285  VAL285      0.0290
     88  CG1       75.0730   30.6430   13.8020 C.3   285  VAL285      0.0023
     89  CG2       75.9390   29.1020   15.6050 C.3   285  VAL285      0.0023
     90  N         72.2200   31.6000   15.5620 N.am  286  GLY286     -0.1955
     91  CA        71.2300   32.5020   14.9760 C.3   286  GLY286      0.1869
     92  C         70.0390   31.6910   14.4590 C.2   286  GLY286      0.2309
     93  O         69.7540   30.6220   14.9980 O.2   286  GLY286     -0.2863
@<TRIPOS>BOND
     1    30    29    2
     2    29    31   am
     3    29    28    1
     4    26    27    2
     5    26    25    1
     6    16    14   am
     7    25    28    1
     8    25    24    1
     9    20    19    2
    10    14    13    1
    11    14    15    2
    12    19    24   am
    13    19    18    1
    14    13    12    1
    15    88    87    1
    16    92    91    1
    17    92    93    2
    18    22    21    1
    19    18    21    1
    20    18    17    1
    21    21    23    1
    22    17    10   am
    23    91    90    1
    24    87    89    1
    25    87    84    1
    26    12     9    1
    27    86    85    2
    28    10     9    1
    29    10    11    2
    30    90    85   am
    31     9     8    1
    32    85    84    1
    33    84    83    1
    34     4     3    2
    35     8     3   am
    36    39    37   am
    37    83    74   am
    38     3     2    1
    39    38    37    2
    40    37    36    1
    41    36    33    1
    42    74    75    2
    43    74    73    1
    44    80    78   ar
    45    80    82   ar
    46     2     1    1
    47     2     5    1
    48    78    77   ar
    49     7     5    1
    50     5     6    1
    51    73    72    1
    52    73    76    1
    53    82    81   ar
    54    33    32    1
    55    33    34    1
    56    77    76    1
    57    77    79   ar
    58    34    35    2
    59    81    79   ar
    60    59    58    1
    61    63    62    2
    62    58    57    1
    63    57    56    1
    64    56    55    1
    65    62    61    1
    66    55    52    1
    67    52    53    1
    68    52    51    1
    69    54    53    2
    70    43    42    2
    71    64    61    1
    72    64    65    1
    73    44    45    1
    74    44    41    1
    75    47    45   ar
    76    47    49   ar
    77    61    60    1
    78    42    51   am
    79    42    41    1
    80    45    46   ar
    81    49    50   ar
    82    41    40    1
    83    65    67   ar
    84    65    66   ar
    85    67    69   ar
    86    46    48   ar
    87    50    48   ar
    88    66    68   ar
    89    69    70   ar
    90    68    70   ar
    91    70    71    1
