@<TRIPOS>MOLECULE
tmp/1e9xA01.pdb
 105 101 0 0 0
SMALL
GASTEIGER

@<TRIPOS>ATOM
      1  N        -22.6440   -7.6630   76.2000 N.3    72  GLN72      -0.1245
      2  CA       -21.7510   -6.9100   75.3290 C.3    72  GLN72       0.1566
      3  C        -22.1980   -5.4530   75.2280 C.2    72  GLN72       0.2260
      4  O        -21.3830   -4.5600   74.9950 O.2    72  GLN72      -0.2867
      5  CB       -21.7400   -7.5140   73.9240 C.3    72  GLN72       0.0367
      6  CG       -20.9750   -6.6620   72.9100 C.3    72  GLN72       0.0905
      7  CD       -21.3280   -6.9870   71.4690 C.2    72  GLN72       0.2608
      8  OE1      -22.4990   -6.9600   71.0840 O.2    72  GLN72      -0.2717
      9  NE2      -20.3160   -7.2830   70.6620 N.am   72  GLN72      -0.0878
     10  N        -18.3860   -1.4860   75.9240 N.3    76  TYR76      -0.1241
     11  CA       -17.5460   -0.5520   75.1760 C.3    76  TYR76       0.1605
     12  C        -18.0410    0.8880   75.3490 C.2    76  TYR76       0.2264
     13  O        -18.4860    1.5210   74.3920 O.2    76  TYR76      -0.2867
     14  CB       -17.5330   -0.9280   73.6860 C.3    76  TYR76       0.0534
     15  CG       -17.1640   -2.3770   73.3990 C.ar   76  TYR76      -0.0201
     16  CD1      -15.8330   -2.7950   73.4070 C.ar   76  TYR76      -0.0009
     17  CD2      -18.1470   -3.3220   73.1060 C.ar   76  TYR76      -0.0009
     18  CE1      -15.4850   -4.1210   73.1260 C.ar   76  TYR76       0.0417
     19  CE2      -17.8130   -4.6480   72.8220 C.ar   76  TYR76       0.0417
     20  CZ       -16.4790   -5.0400   72.8330 C.ar   76  TYR76       0.1957
     21  OH       -16.1470   -6.3420   72.5410 O.3    76  TYR76      -0.2866
     22  N        -16.6160    3.6460   75.5000 N.3    78  PHE78      -0.1227
     23  CA       -15.9410    4.6540   74.6960 C.3    78  PHE78       0.1736
     24  C        -16.7250    4.9470   73.4190 C.2    78  PHE78       0.2595
     25  O        -16.4530    5.9250   72.7230 O.2    78  PHE78      -0.2718
     26  CB       -14.5180    4.1870   74.3550 C.3    78  PHE78       0.0547
     27  CG       -14.4530    2.8150   73.7320 C.ar   78  PHE78      -0.0202
     28  CD1      -14.7080    2.6360   72.3780 C.ar   78  PHE78      -0.0042
     29  CD2      -14.1330    1.7030   74.5040 C.ar   78  PHE78      -0.0042
     30  CE1      -14.6430    1.3710   71.8000 C.ar   78  PHE78      -0.0003
     31  CE2      -14.0670    0.4340   73.9380 C.ar   78  PHE78      -0.0003
     32  CZ       -14.3220    0.2660   72.5830 C.ar   78  PHE78      -0.0000
     33  N        -17.7050    4.0990   73.1230 N.am   79  MET79      -0.1979
     34  CA       -18.5300    4.2640   71.9330 C.3    79  MET79       0.1605
     35  C        -19.7290    5.1720   72.1830 C.2    79  MET79       0.2287
     36  O        -20.2560    5.7830   71.2530 O.2    79  MET79      -0.2864
     37  CB       -19.0290    2.9000   71.4360 C.3    79  MET79       0.0413
     38  CG       -17.9440    2.0080   70.8560 C.3    79  MET79       0.0598
     39  SD       -16.9350    2.8670   69.6230 S.3    79  MET79      -0.1393
     40  CE       -18.1520    3.2450   68.3860 C.3    79  MET79       0.0692
     41  N        -21.3140    7.4360   69.0880 N.3    83  PHE83      -0.1241
     42  CA       -22.6160    7.1690   68.4950 C.3    83  PHE83       0.1605
     43  C        -23.5340    8.3630   68.7320 C.2    83  PHE83       0.2264
     44  O        -24.2810    8.7770   67.8430 O.2    83  PHE83      -0.2867
     45  CB       -23.2220    5.9060   69.1130 C.3    83  PHE83       0.0534
     46  CG       -22.5490    4.6280   68.6770 C.ar   83  PHE83      -0.0203
     47  CD1      -21.7280    4.6010   67.5510 C.ar   83  PHE83      -0.0042
     48  CD2      -22.7570    3.4450   69.3780 C.ar   83  PHE83      -0.0042
     49  CE1      -21.1280    3.4140   67.1300 C.ar   83  PHE83      -0.0003
     50  CE2      -22.1600    2.2530   68.9660 C.ar   83  PHE83      -0.0003
     51  CZ       -21.3440    2.2400   67.8380 C.ar   83  PHE83      -0.0000
     52  N        -18.7570    3.0030   61.5080 N.3   255  PHE255     -0.1227
     53  CA       -17.6740    2.8860   62.4830 C.3   255  PHE255      0.1736
     54  C        -16.9930    1.5230   62.5110 C.2   255  PHE255      0.2595
     55  O        -15.7950    1.4130   62.2340 O.2   255  PHE255     -0.2718
     56  CB       -18.1590    3.2110   63.8970 C.3   255  PHE255      0.0547
     57  CG       -17.0350    3.4440   64.8730 C.ar  255  PHE255     -0.0202
     58  CD1      -16.4300    2.3710   65.5300 C.ar  255  PHE255     -0.0042
     59  CD2      -16.5330    4.7250   65.0810 C.ar  255  PHE255     -0.0042
     60  CE1      -15.3380    2.5700   66.3760 C.ar  255  PHE255     -0.0003
     61  CE2      -15.4430    4.9400   65.9230 C.ar  255  PHE255     -0.0003
     62  CZ       -14.8420    3.8560   66.5730 C.ar  255  PHE255     -0.0000
     63  N        -17.7540    0.4900   62.8590 N.am  256  ALA256     -0.1980
     64  CA       -17.2100   -0.8620   62.9530 C.3   256  ALA256      0.1597
     65  C        -16.3490   -1.2400   61.7510 C.2   256  ALA256      0.2287
     66  O        -15.2320   -1.7210   61.9060 O.2   256  ALA256     -0.2864
     67  CB       -18.3420   -1.8660   63.1230 C.3   256  ALA256      0.0319
     68  N        -12.3300    1.4730   61.0400 N.3   259  HIS259     -0.1226
     69  CA       -11.0220    1.2250   61.6420 C.3   259  HIS259      0.1752
     70  C        -10.4810   -0.1600   61.2970 C.2   259  HIS259      0.2596
     71  O         -9.2770   -0.3290   61.1020 O.2   259  HIS259     -0.2718
     72  CB       -11.0850    1.4100   63.1670 C.3   259  HIS259      0.0759
     73  CG       -11.8460    0.3380   63.8830 C.ar  259  HIS259      0.0818
     74  ND1      -11.2240   -0.6740   64.5840 N.ar  259  HIS259     -0.2268
     75  CD2      -13.1770    0.1230   64.0150 C.ar  259  HIS259      0.1154
     76  CE1      -12.1380   -1.4630   65.1200 C.ar  259  HIS259      0.1986
     77  NE2      -13.3310   -1.0020   64.7890 N.ar  259  HIS259     -0.2212
     78  N        -11.3740   -1.1420   61.2060 N.am  260  THR260     -0.1953
     79  CA       -10.9830   -2.5100   60.8900 C.3   260  THR260      0.1897
     80  C        -10.4880   -2.7060   59.4600 C.2   260  THR260      0.2313
     81  O         -9.4340   -3.2970   59.2460 O.2   260  THR260     -0.2863
     82  CB       -12.1390   -3.4810   61.1130 C.3   260  THR260      0.1794
     83  OG1      -13.3040   -3.0020   60.4230 O.3   260  THR260     -0.2208
     84  CG2      -12.4200   -3.6460   62.6000 C.3   260  THR260      0.0378
     85  N         -9.1390   -5.7570   66.4150 N.3   321  LEU321     -0.1245
     86  CA        -9.6340   -5.6520   67.7860 C.3   321  LEU321      0.1561
     87  C         -8.7770   -6.6260   68.5860 C.2   321  LEU321      0.2260
     88  O         -8.8680   -7.8380   68.3980 O.2   321  LEU321     -0.2867
     89  CB       -11.1210   -6.0410   67.8840 C.3   321  LEU321      0.0270
     90  CG       -12.1700   -5.0510   67.3540 C.3   321  LEU321      0.0019
     91  CD1      -12.0830   -4.9640   65.8290 C.3   321  LEU321      0.0001
     92  CD2      -13.5690   -5.5070   67.7750 C.3   321  LEU321      0.0001
     93  N        -18.4030  -11.4000   64.2480 N.3   394  CYS394     -0.1235
     94  CA       -18.5400  -10.3010   63.2990 C.3   394  CYS394      0.1677
     95  C        -19.4860  -10.5610   62.1320 C.2   394  CYS394      0.2270
     96  O        -19.1740  -11.3450   61.2360 O.2   394  CYS394     -0.2867
     97  CB       -17.1710   -9.9330   62.7380 C.3   394  CYS394      0.0956
     98  SG       -17.2390   -8.5500   61.6010 S.3   394  CYS394     -0.0801
     99  N         -9.3320    1.8360   70.1840 N.3   434  VAL434     -0.1245
    100  CA        -9.4530    1.5700   68.7650 C.3   434  VAL434      0.1561
    101  C         -8.0460    1.6180   68.2060 C.2   434  VAL434      0.2260
    102  O         -7.4330    2.6820   68.1250 O.2   434  VAL434     -0.2867
    103  CB       -10.3250    2.6230   68.0510 C.3   434  VAL434      0.0252
    104  CG1      -10.2320    2.4390   66.5330 C.3   434  VAL434      0.0019
    105  CG2      -11.7740    2.4900   68.5120 C.3   434  VAL434      0.0019
@<TRIPOS>BOND
     1    81    80    2
     2    80    79    1
     3    83    82    1
     4    79    82    1
     5    79    78    1
     6    68    69    1
     7    71    70    2
     8    82    84    1
     9    78    70   am
    10    96    95    2
    11    70    69    1
    12    52    53    1
    13    98    97    1
    14    69    72    1
    15    65    66    2
    16    65    64    1
    17    95    94    1
    18    55    54    2
    19    53    54    1
    20    53    56    1
    21    54    63   am
    22    97    94    1
    23    63    64    1
    24    64    67    1
    25    72    73    1
    26    94    93    1
    27    73    75   ar
    28    73    74   ar
    29    56    57    1
    30    75    77   ar
    31    74    76   ar
    32    77    76   ar
    33    57    59   ar
    34    57    58   ar
    35    59    61   ar
    36    58    60   ar
    37    91    90    1
    38    61    62   ar
    39    60    62   ar
    40    85    86    1
    41   104   103    1
    42    49    47   ar
    43    49    51   ar
    44    90    92    1
    45    90    89    1
    46    47    46   ar
    47    86    89    1
    48    86    87    1
    49    51    50   ar
    50    44    43    2
    51   103   105    1
    52   103   100    1
    53   102   101    2
    54   101   100    1
    55    40    39    1
    56    88    87    2
    57    42    43    1
    58    42    41    1
    59    42    45    1
    60    46    45    1
    61    46    48   ar
    62   100    99    1
    63    50    48   ar
    64    39    38    1
    65     9     7   am
    66    38    37    1
    67     8     7    2
    68    36    35    2
    69    37    34    1
    70     7     6    1
    71    30    28   ar
    72    30    32   ar
    73    34    35    1
    74    34    33    1
    75    28    27   ar
    76    21    20    1
    77    32    31   ar
    78    25    24    2
    79    19    20   ar
    80    19    17   ar
    81    20    18   ar
    82     6     5    1
    83    17    15   ar
    84    33    24   am
    85    18    16   ar
    86    15    16   ar
    87    15    14    1
    88    24    23    1
    89    14    11    1
    90    27    26    1
    91    27    29   ar
    92     5     2    1
    93    31    29   ar
    94    26    23    1
    95    13    12    2
    96    23    22    1
    97     4     3    2
    98    11    12    1
    99    11    10    1
   100     3     2    1
   101     2     1    1
