@<TRIPOS>MOLECULE
tmp/1ea1A01.pdb
 154 146 0 0 0
SMALL
GASTEIGER

@<TRIPOS>ATOM
      1  N        -22.6900   -7.5990   76.4020 N.3    70  GLN70      -0.1245
      2  CA       -21.7870   -6.8130   75.5710 C.3    70  GLN70       0.1566
      3  C        -22.2300   -5.3480   75.5170 C.2    70  GLN70       0.2260
      4  O        -21.4590   -4.4630   75.1350 O.2    70  GLN70      -0.2867
      5  CB       -21.7760   -7.4110   74.1610 C.3    70  GLN70       0.0367
      6  CG       -21.0970   -6.5650   73.1050 C.3    70  GLN70       0.0905
      7  CD       -21.3300   -7.1040   71.7050 C.2    70  GLN70       0.2608
      8  OE1      -20.9450   -8.2330   71.3910 O.2    70  GLN70      -0.2717
      9  NE2      -21.9710   -6.2990   70.8560 N.am   70  GLN70      -0.0878
     10  N        -18.2430   -1.5620   76.3670 N.3    74  TYR74      -0.1241
     11  CA       -17.4350   -0.6090   75.6180 C.3    74  TYR74       0.1605
     12  C        -17.9260    0.8160   75.8180 C.2    74  TYR74       0.2264
     13  O        -18.3930    1.4610   74.8800 O.2    74  TYR74      -0.2867
     14  CB       -17.4610   -0.9460   74.1230 C.3    74  TYR74       0.0534
     15  CG       -17.0780   -2.3670   73.7990 C.ar   74  TYR74      -0.0201
     16  CD1      -15.7580   -2.7900   73.9020 C.ar   74  TYR74      -0.0009
     17  CD2      -18.0340   -3.2860   73.3660 C.ar   74  TYR74      -0.0009
     18  CE1      -15.3920   -4.0950   73.5760 C.ar   74  TYR74       0.0417
     19  CE2      -17.6840   -4.5930   73.0360 C.ar   74  TYR74       0.0417
     20  CZ       -16.3580   -4.9890   73.1400 C.ar   74  TYR74       0.1957
     21  OH       -15.9840   -6.2620   72.7730 O.3    74  TYR74      -0.2866
     22  N        -16.4750    3.4450   75.8220 N.3    76  PHE76      -0.1227
     23  CA       -15.8100    4.3920   74.9310 C.3    76  PHE76       0.1736
     24  C        -16.5430    4.5940   73.6050 C.2    76  PHE76       0.2595
     25  O        -16.2150    5.5020   72.8370 O.2    76  PHE76      -0.2718
     26  CB       -14.3550    3.9640   74.6820 C.3    76  PHE76       0.0547
     27  CG       -14.2040    2.6170   74.0220 C.ar   76  PHE76      -0.0202
     28  CD1      -14.2160    2.4970   72.6360 C.ar   76  PHE76      -0.0042
     29  CD2      -14.0120    1.4670   74.7910 C.ar   76  PHE76      -0.0042
     30  CE1      -14.0340    1.2540   72.0210 C.ar   76  PHE76      -0.0003
     31  CE2      -13.8310    0.2200   74.1860 C.ar   76  PHE76      -0.0003
     32  CZ       -13.8410    0.1160   72.8000 C.ar   76  PHE76      -0.0000
     33  N        -17.5460    3.7560   73.3550 N.am   77  MET77      -0.1979
     34  CA       -18.3420    3.8250   72.1330 C.3    77  MET77       0.1605
     35  C        -19.5580    4.7360   72.2750 C.2    77  MET77       0.2287
     36  O        -20.1670    5.1310   71.2770 O.2    77  MET77      -0.2864
     37  CB       -18.8220    2.4220   71.7400 C.3    77  MET77       0.0413
     38  CG       -17.7360    1.5080   71.2090 C.3    77  MET77       0.0598
     39  SD       -16.8460    2.2600   69.8260 S.3    77  MET77      -0.1393
     40  CE       -18.1800    2.3980   68.6030 C.3    77  MET77       0.0692
     41  N        -21.2700    7.0670   69.1840 N.3    81  PHE81      -0.1241
     42  CA       -22.6140    6.7330   68.7240 C.3    81  PHE81       0.1605
     43  C        -23.5770    7.8910   68.9650 C.2    81  PHE81       0.2264
     44  O        -24.3260    8.2900   68.0730 O.2    81  PHE81      -0.2867
     45  CB       -23.1270    5.4900   69.4590 C.3    81  PHE81       0.0534
     46  CG       -22.4950    4.2010   69.0030 C.ar   81  PHE81      -0.0203
     47  CD1      -21.8750    4.1080   67.7590 C.ar   81  PHE81      -0.0042
     48  CD2      -22.5540    3.0660   69.8060 C.ar   81  PHE81      -0.0042
     49  CE1      -21.3250    2.9050   67.3220 C.ar   81  PHE81      -0.0003
     50  CE2      -22.0050    1.8550   69.3780 C.ar   81  PHE81      -0.0003
     51  CZ       -21.3900    1.7760   68.1320 C.ar   81  PHE81      -0.0000
     52  N        -26.9000   -3.3770   66.6080 N.3    94  ARG94      -0.1245
     53  CA       -26.4880   -4.2040   65.4740 C.3    94  ARG94       0.1563
     54  C        -27.6290   -4.4760   64.4910 C.2    94  ARG94       0.2260
     55  O        -27.3890   -4.7780   63.3190 O.2    94  ARG94      -0.2867
     56  CB       -25.8900   -5.5300   65.9770 C.3    94  ARG94       0.0307
     57  CG       -24.4930   -5.4150   66.6050 C.3    94  ARG94       0.0489
     58  CD       -24.4310   -4.3340   67.6820 C.3    94  ARG94       0.2205
     59  NE       -23.1290   -4.2510   68.3450 N.pl3  94  ARG94      -0.0865
     60  CZ       -22.7820   -3.2840   69.1940 C.cat  94  ARG94       0.5346
     61  NH1      -23.6390   -2.3130   69.4830 N.pl3  94  ARG94       0.1354
     62  NH2      -21.5810   -3.2870   69.7580 N.pl3  94  ARG94       0.1354
     63  N        -28.0380   -0.2350   63.9990 N.3    97  MET97      -0.1230
     64  CA       -26.6900    0.3310   64.0140 C.3    97  MET97       0.1702
     65  C        -25.8090   -0.3120   62.9490 C.2    97  MET97       0.2592
     66  O        -25.0580    0.3770   62.2610 O.2    97  MET97      -0.2718
     67  CB       -26.0380    0.1630   65.3970 C.3    97  MET97       0.0401
     68  CG       -26.5580    1.1350   66.4620 C.3    97  MET97       0.0596
     69  SD       -25.6070    1.1540   68.0190 S.3    97  MET97      -0.1393
     70  CE       -26.8170    0.4960   69.1950 C.3    97  MET97       0.0692
     71  N        -25.9110   -1.6320   62.8120 N.am   98  LEU98      -0.1980
     72  CA       -25.1240   -2.3650   61.8240 C.3    98  LEU98       0.1596
     73  C        -26.0080   -3.3420   61.0570 C.2    98  LEU98       0.2287
     74  O        -25.6110   -4.4770   60.7830 O.2    98  LEU98      -0.2864
     75  CB       -23.9910   -3.1280   62.5100 C.3    98  LEU98       0.0297
     76  CG       -23.2050   -4.0440   61.5170 C.3    98  LEU98       0.0022
     77  CD1      -22.3980   -3.2130   60.5520 C.3    98  LEU98       0.0001
     78  CD2      -22.3650   -4.9900   62.3600 C.3    98  LEU98       0.0001
     79  N        -22.5200    6.0050   63.4090 N.3   250  SER250     -0.1217
     80  CA       -22.7150    4.7010   64.0220 C.3   250  SER250      0.1889
     81  C        -22.5990    3.5740   63.0050 C.2   250  SER250      0.2288
     82  O        -21.9110    2.5850   63.2500 O.2   250  SER250     -0.2866
     83  CB       -24.0820    4.6360   64.7010 C.3   250  SER250      0.2089
     84  OG       -24.1810    5.6120   65.7210 O.3   250  SER250     -0.2183
     85  N        -18.9040    3.1560   61.4510 N.3   253  PHE253     -0.1227
     86  CA       -17.8600    2.6680   62.3470 C.3   253  PHE253      0.1736
     87  C        -17.4960    1.2160   62.0620 C.2   253  PHE253      0.2595
     88  O        -16.3190    0.8770   61.9160 O.2   253  PHE253     -0.2718
     89  CB       -18.2740    2.8090   63.8120 C.3   253  PHE253      0.0547
     90  CG       -17.1080    2.9070   64.7500 C.ar  253  PHE253     -0.0202
     91  CD1      -16.4960    1.7580   65.2460 C.ar  253  PHE253     -0.0042
     92  CD2      -16.5760    4.1460   65.0880 C.ar  253  PHE253     -0.0042
     93  CE1      -15.3670    1.8350   66.0630 C.ar  253  PHE253     -0.0003
     94  CE2      -15.4480    4.2400   65.9030 C.ar  253  PHE253     -0.0003
     95  CZ       -14.8380    3.0790   66.3940 C.ar  253  PHE253     -0.0000
     96  N        -18.5150    0.3670   61.9740 N.am  254  ALA254     -0.1980
     97  CA       -18.3220   -1.0520   61.7060 C.3   254  ALA254      0.1597
     98  C        -17.5230   -1.2990   60.4250 C.2   254  ALA254      0.2287
     99  O        -16.7520   -2.2520   60.3350 O.2   254  ALA254     -0.2864
    100  CB       -19.6760   -1.7430   61.6200 C.3   254  ALA254      0.0319
    101  N        -12.4080    1.4910   60.8570 N.3   257  HIS257     -0.1226
    102  CA       -11.0930    1.1820   61.4160 C.3   257  HIS257      0.1752
    103  C        -10.6220   -0.2780   61.4080 C.2   257  HIS257      0.2596
    104  O         -9.4110   -0.5280   61.3800 O.2   257  HIS257     -0.2718
    105  CB       -10.9520    1.7750   62.8260 C.3   257  HIS257      0.0759
    106  CG       -11.2460    0.8100   63.9330 C.ar  257  HIS257      0.0818
    107  ND1      -12.5260    0.5370   64.3660 N.ar  257  HIS257     -0.2268
    108  CD2      -10.4200    0.0650   64.7040 C.ar  257  HIS257      0.1154
    109  CE1      -12.4750   -0.3330   65.3600 C.ar  257  HIS257      0.1986
    110  NE2      -11.2080   -0.6350   65.5840 N.ar  257  HIS257     -0.2212
    111  N        -11.5380   -1.2440   61.4320 N.am  258  THR258     -0.1953
    112  CA       -11.1050   -2.6380   61.4090 C.3   258  THR258      0.1897
    113  C        -10.6420   -3.0050   60.0050 C.2   258  THR258      0.2313
    114  O         -9.6690   -3.7330   59.8440 O.2   258  THR258     -0.2863
    115  CB       -12.2170   -3.6210   61.8330 C.3   258  THR258      0.1794
    116  OG1      -13.4190   -3.3390   61.1020 O.3   258  THR258     -0.2208
    117  CG2      -12.4720   -3.5340   63.3220 C.3   258  THR258      0.0378
    118  N         -9.1150   -5.5730   66.7060 N.3   319  LEU319     -0.1245
    119  CA        -9.6540   -5.5250   68.0590 C.3   319  LEU319      0.1561
    120  C         -8.8100   -6.5170   68.8610 C.2   319  LEU319      0.2260
    121  O         -8.9810   -7.7310   68.7110 O.2   319  LEU319     -0.2867
    122  CB       -11.1220   -5.9720   68.0770 C.3   319  LEU319      0.0270
    123  CG       -12.2360   -4.9230   67.9090 C.3   319  LEU319      0.0019
    124  CD1      -12.1320   -4.2470   66.5750 C.3   319  LEU319      0.0001
    125  CD2      -13.5970   -5.5900   68.0450 C.3   319  LEU319      0.0001
    126  N         -8.8050   -6.7590   72.1210 N.3   321  ILE321     -0.1245
    127  CA        -9.5170   -7.1900   73.3150 C.3   321  ILE321      0.1561
    128  C        -11.0280   -7.1170   73.0890 C.2   321  ILE321      0.2260
    129  O        -11.5240   -6.2060   72.4270 O.2   321  ILE321     -0.2867
    130  CB        -9.1090   -6.3460   74.5460 C.3   321  ILE321      0.0252
    131  CG1       -9.5640   -7.0560   75.8250 C.3   321  ILE321      0.0019
    132  CG2       -9.7150   -4.9470   74.4610 C.3   321  ILE321      0.0019
    133  CD1       -9.1660   -6.3290   77.0880 C.3   321  ILE321      0.0001
    134  N        -18.2380  -11.9150   64.3890 N.3   392  CYS392     -0.1235
    135  CA       -18.3850  -10.7950   63.4580 C.3   392  CYS392      0.1677
    136  C        -19.3200  -11.1380   62.3060 C.2   392  CYS392      0.2270
    137  O        -18.9840  -11.9670   61.4600 O.2   392  CYS392     -0.2867
    138  CB       -17.0340  -10.3850   62.8810 C.3   392  CYS392      0.0956
    139  SG       -17.1440   -9.0180   61.6920 S.3   392  CYS392     -0.0801
    140  N         -8.4080    2.5580   72.8160 N.3   431  MET431     -0.1230
    141  CA        -9.1910    1.3330   72.7110 C.3   431  MET431      0.1702
    142  C         -9.4150    1.0090   71.2370 C.2   431  MET431      0.2592
    143  O         -9.6380   -0.1450   70.8600 O.2   431  MET431     -0.2718
    144  CB       -10.5440    1.4810   73.4230 C.3   431  MET431      0.0401
    145  CG       -10.4510    1.5340   74.9540 C.3   431  MET431      0.0596
    146  SD        -9.4330    0.1940   75.6790 S.3   431  MET431     -0.1393
    147  CE       -10.4420   -1.2890   75.2520 C.3   431  MET431      0.0692
    148  N         -9.3640    2.0410   70.4050 N.am  432  VAL432     -0.1980
    149  CA        -9.5380    1.8640   68.9770 C.3   432  VAL432      0.1595
    150  C         -8.1380    1.8530   68.3740 C.2   432  VAL432      0.2287
    151  O         -7.4960    2.8970   68.2290 O.2   432  VAL432     -0.2864
    152  CB       -10.3880    3.0070   68.3810 C.3   432  VAL432      0.0276
    153  CG1      -10.5140    2.8580   66.8660 C.3   432  VAL432      0.0022
    154  CG2      -11.7590    2.9880   69.0130 C.3   432  VAL432      0.0022
@<TRIPOS>BOND
     1   114   113    2
     2   113   112    1
     3    99    98    2
     4    98    97    1
     5    77    76    1
     6    74    73    2
     7   101   102    1
     8    73    72    1
     9   116   115    1
    10   104   103    2
    11   103   102    1
    12   103   111   am
    13   112   111    1
    14   112   115    1
    15   102   105    1
    16    85    86    1
    17   137   136    2
    18    76    78    1
    19    76    75    1
    20   100    97    1
    21   139   138    1
    22    97    96    1
    23    72    75    1
    24    72    71    1
    25   115   117    1
    26    88    87    2
    27    96    87   am
    28    87    86    1
    29    66    65    2
    30   136   135    1
    31    86    89    1
    32    71    65   am
    33   105   106    1
    34   138   135    1
    35    65    64    1
    36    81    82    2
    37    81    80    1
    38    55    54    2
    39    79    80    1
    40   135   134    1
    41    89    90    1
    42   106   107   ar
    43   106   108   ar
    44    63    64    1
    45    64    67    1
    46    80    83    1
    47   107   109   ar
    48    54    53    1
    49    83    84    1
    50   108   110   ar
    51    90    92   ar
    52    90    91   ar
    53    92    94   ar
    54    91    93   ar
    55   109   110   ar
    56    67    68    1
    57    53    56    1
    58    53    52    1
    59    94    95   ar
    60    56    57    1
    61    93    95   ar
    62    68    69    1
    63   124   123    1
    64    57    58    1
    65   118   119    1
    66   153   152    1
    67    49    47   ar
    68    49    51   ar
    69    58    59    1
    70    47    46   ar
    71   123   125    1
    72   123   122    1
    73    69    70    1
    74   119   122    1
    75   119   120    1
    76    44    43    2
    77    51    50   ar
    78   151   150    2
    79    59    60    2
    80   150   149    1
    81   152   149    1
    82   152   154    1
    83    40    39    1
    84   121   120    2
    85    42    43    1
    86    42    41    1
    87    42    45    1
    88   149   148    1
    89    46    45    1
    90    46    48   ar
    91    60    61    1
    92    60    62    1
    93    50    48   ar
    94    39    38    1
    95   148   142   am
    96     9     7   am
    97   143   142    2
    98    38    37    1
    99   142   141    1
   100    36    35    2
   101     8     7    2
   102     7     6    1
   103    37    34    1
   104    30    28   ar
   105    30    32   ar
   106   126   127    1
   107    34    35    1
   108    34    33    1
   109   129   128    2
   110    28    27   ar
   111   141   140    1
   112   141   144    1
   113    21    20    1
   114    32    31   ar
   115    25    24    2
   116    19    20   ar
   117    19    17   ar
   118   128   127    1
   119     6     5    1
   120    20    18   ar
   121   127   130    1
   122    33    24   am
   123    17    15   ar
   124   144   145    1
   125    18    16   ar
   126    24    23    1
   127    15    16   ar
   128    15    14    1
   129    27    26    1
   130    27    29   ar
   131    14    11    1
   132     5     2    1
   133    31    29   ar
   134   132   130    1
   135   130   131    1
   136    26    23    1
   137    13    12    2
   138    23    22    1
   139   145   146    1
   140     4     3    2
   141   147   146    1
   142     3     2    1
   143     2     1    1
   144    11    12    1
   145    11    10    1
   146   131   133    1
