@<TRIPOS>MOLECULE
tmp/1ea6A00.pdb
 133 122 0 0 0
SMALL
GASTEIGER

@<TRIPOS>ATOM
      1  N         29.6340   68.5230   44.1840 N.3     4  GLN4       -0.1245
      2  CA        30.7720   67.6620   43.9430 C.3     4  GLN4        0.1566
      3  C         31.4830   68.5210   42.9040 C.2     4  GLN4        0.2260
      4  O         32.2020   68.0290   42.0350 O.2     4  GLN4       -0.2867
      5  CB        30.2770   66.3330   43.3470 C.3     4  GLN4        0.0367
      6  CG        31.3480   65.3220   42.9500 C.3     4  GLN4        0.0905
      7  CD        30.7350   64.0340   42.4070 C.2     4  GLN4        0.2608
      8  OE1       29.5060   63.9150   42.2990 O.2     4  GLN4       -0.2717
      9  NE2       31.5920   63.0740   42.0670 N.am    4  GLN4       -0.0878
     10  N         37.1130   64.1950   35.1280 N.3    15  GLU15      -0.1231
     11  CA        35.7280   63.7320   35.1700 C.3    15  GLU15       0.1699
     12  C         35.2410   63.3470   33.7730 C.2    15  GLU15       0.2592
     13  O         34.5960   62.3100   33.5760 O.2    15  GLU15      -0.2718
     14  CB        34.8250   64.8320   35.7300 C.3    15  GLU15       0.0402
     15  CG        34.9470   65.0360   37.2230 C.3    15  GLU15       0.1161
     16  CD        34.4930   63.8180   38.0030 C.2    15  GLU15       0.3649
     17  OE1       33.4730   63.2000   37.6080 O.co2  15  GLU15      -0.2457
     18  OE2       35.1430   63.4830   39.0150 O.co2  15  GLU15      -0.2457
     19  N         35.5620   64.2000   32.8090 N.am   16  LEU16      -0.1980
     20  CA        35.1730   63.9950   31.4280 C.3    16  LEU16       0.1596
     21  C         35.8130   62.7460   30.8300 C.2    16  LEU16       0.2287
     22  O         35.1180   61.9000   30.2710 O.2    16  LEU16      -0.2864
     23  CB        35.5520   65.2370   30.6280 C.3    16  LEU16       0.0297
     24  CG        34.3860   66.0090   30.0190 C.3    16  LEU16       0.0022
     25  CD1       33.1840   66.0240   30.9370 C.3    16  LEU16       0.0001
     26  CD2       34.8560   67.4030   29.7050 C.3    16  LEU16       0.0001
     27  N         34.3360   59.5170   32.1850 N.3    19  ASN19      -0.1225
     28  CA        33.0080   59.1920   31.6660 C.3    19  ASN19       0.1785
     29  C         33.1840   58.3670   30.3950 C.2    19  ASN19       0.2597
     30  O         32.4920   57.3690   30.1730 O.2    19  ASN19      -0.2718
     31  CB        32.2460   60.4290   31.2560 C.3    19  ASN19       0.1169
     32  CG        31.5120   61.0570   32.3910 C.2    19  ASN19       0.2627
     33  OD1       31.0550   60.3750   33.3080 O.2    19  ASN19      -0.2716
     34  ND2       31.3530   62.3800   32.3250 N.am   19  ASN19      -0.0877
     35  N         34.0810   58.8560   29.5410 N.am   20  SER20      -0.1952
     36  CA        34.3600   58.1720   28.2960 C.3    20  SER20       0.1924
     37  C         34.8580   56.7660   28.6130 C.2    20  SER20       0.2314
     38  O         34.4180   55.7750   27.9920 O.2    20  SER20      -0.2863
     39  CB        35.4140   58.9230   27.4820 C.3    20  SER20       0.2116
     40  OG        34.9090   60.1770   27.0650 O.3    20  SER20      -0.2180
     41  N         34.2660   55.0180   31.3350 N.3    22  ASP22      -0.1225
     42  CA        33.1830   54.1860   31.8500 C.3    22  ASP22       0.1805
     43  C         32.2040   53.8190   30.7320 C.2    22  ASP22       0.2597
     44  O         31.4460   52.8550   30.8440 O.2    22  ASP22      -0.2718
     45  CB        32.4240   54.8900   32.9830 C.3    22  ASP22       0.1424
     46  CG        33.1730   54.8590   34.3120 C.2    22  ASP22       0.3668
     47  OD1       33.7400   53.8030   34.6760 O.co2  22  ASP22      -0.2456
     48  OD2       33.1750   55.8970   35.0070 O.co2  22  ASP22      -0.2456
     49  N         32.2290   54.5900   29.6510 N.am   23  ALA23      -0.1979
     50  CA        31.3450   54.3450   28.5130 C.3    23  ALA23       0.1597
     51  C         31.9280   53.3140   27.5490 C.2    23  ALA23       0.2287
     52  O         31.3950   53.1000   26.4570 O.2    23  ALA23      -0.2864
     53  CB        31.0850   55.6400   27.7770 C.3    23  ALA23       0.0319
     54  N         35.5780   66.8830   24.8280 N.3    42  VAL42      -0.1245
     55  CA        35.9660   65.4850   24.9140 C.3    42  VAL42       0.1561
     56  C         35.0750   64.6640   23.9980 C.2    42  VAL42       0.2260
     57  O         33.8600   64.6030   24.1790 O.2    42  VAL42      -0.2867
     58  CB        35.8400   64.9510   26.3380 C.3    42  VAL42       0.0252
     59  CG1       36.1100   63.4510   26.3450 C.3    42  VAL42       0.0019
     60  CG2       36.7960   65.6770   27.2440 C.3    42  VAL42       0.0019
     61  N         34.1770   60.9520   22.2550 N.3    44  ASP44      -0.1239
     62  CA        34.4630   59.5540   22.4980 C.3    44  ASP44       0.1674
     63  C         33.5660   58.6490   21.7240 C.2    44  ASP44       0.2266
     64  O         32.4100   58.9700   21.4760 O.2    44  ASP44      -0.2867
     65  CB        34.4030   59.2160   23.9930 C.3    44  ASP44       0.1410
     66  CG        33.0010   59.0610   24.5140 C.2    44  ASP44       0.3668
     67  OD1       32.2180   58.2510   23.9560 O.co2  44  ASP44      -0.2456
     68  OD2       32.6780   59.7350   25.5220 O.co2  44  ASP44      -0.2456
     69  N         29.4500   53.9950   24.3450 N.3    47  CYS47      -0.1221
     70  CA        28.1330   53.4020   24.2060 C.3    47  CYS47       0.1808
     71  C         27.1070   54.4990   23.9670 C.2    47  CYS47       0.2602
     72  O         25.9800   54.2180   23.5570 O.2    47  CYS47      -0.2717
     73  CB        27.7650   52.5980   25.4550 C.3    47  CYS47       0.0970
     74  SG        27.5610   53.5830   26.9360 S.3    47  CYS47      -0.0800
     75  N         27.5030   55.7480   24.2070 N.am   48  GLY48      -0.1942
     76  CA        26.5890   56.8600   24.0040 C.3    48  GLY48       0.2014
     77  C         25.4540   56.8600   25.0170 C.2    48  GLY48       0.2638
     78  O         25.4380   56.0730   25.9720 O.2    48  GLY48      -0.2714
     79  N         24.4840   57.7420   24.8090 N.am   49  VAL49      -0.1977
     80  CA        23.3580   57.8430   25.7260 C.3    49  VAL49       0.1596
     81  C         22.0260   57.5890   25.0360 C.2    49  VAL49       0.2287
     82  O         21.7870   58.0920   23.9370 O.2    49  VAL49      -0.2864
     83  CB        23.3010   59.2420   26.3910 C.3    49  VAL49       0.0276
     84  CG1       22.0590   59.3620   27.2450 C.3    49  VAL49       0.0022
     85  CG2       24.5340   59.4650   27.2450 C.3    49  VAL49       0.0022
     86  N         17.8480   62.8350   32.3580 N.3    56  GLY56      -0.1210
     87  CA        18.5690   62.4270   33.5510 C.3    56  GLY56       0.1956
     88  C         20.0690   62.6830   33.5130 C.2    56  GLY56       0.2611
     89  O         20.7590   62.5080   34.5180 O.2    56  GLY56      -0.2717
     90  N         20.5810   63.0980   32.3590 N.am   57  LEU57      -0.1979
     91  CA        22.0090   63.3670   32.1970 C.3    57  LEU57       0.1596
     92  C         22.6300   64.3070   33.2250 C.2    57  LEU57       0.2287
     93  O         23.8170   64.1970   33.5320 O.2    57  LEU57      -0.2864
     94  CB        22.2740   63.9350   30.8090 C.3    57  LEU57       0.0297
     95  CG        22.5570   62.9290   29.7070 C.3    57  LEU57       0.0022
     96  CD1       22.8390   63.6670   28.4130 C.3    57  LEU57       0.0001
     97  CD2       23.7500   62.0810   30.1000 C.3    57  LEU57       0.0001
     98  N         26.8640   64.3560   40.8620 N.3    60  GLU60      -0.1231
     99  CA        27.3410   64.3030   39.4850 C.3    60  GLU60       0.1699
    100  C         28.0700   65.5410   38.9600 C.2    60  GLU60       0.2592
    101  O         27.7510   66.6880   39.2830 O.2    60  GLU60      -0.2718
    102  CB        26.1890   63.9540   38.5430 C.3    60  GLU60       0.0402
    103  CG        25.5970   62.5670   38.7890 C.3    60  GLU60       0.1161
    104  CD        24.4560   62.5730   39.7840 C.2    60  GLU60       0.3649
    105  OE1       24.0920   63.6690   40.2800 O.co2  60  GLU60      -0.2457
    106  OE2       23.9020   61.4820   40.0770 O.co2  60  GLU60      -0.2457
    107  N         29.0470   65.2380   38.1170 N.am   61  ALA61      -0.1966
    108  CA        29.9700   66.1440   37.4550 C.3    61  ALA61       0.1728
    109  C         29.3750   66.9560   36.2990 C.2    61  ALA61       0.2616
    110  O         29.7300   68.1230   36.0860 O.2    61  ALA61      -0.2715
    111  CB        31.1570   65.3160   36.9390 C.3    61  ALA61       0.0334
    112  N         28.5050   66.3090   35.5240 N.am   62  LEU62      -0.1977
    113  CA        27.8920   66.9620   34.3830 C.3    62  LEU62       0.1596
    114  C         26.9810   68.0830   34.8310 C.2    62  LEU62       0.2287
    115  O         26.8940   69.1150   34.1770 O.2    62  LEU62      -0.2864
    116  CB        27.1220   65.9500   33.5130 C.3    62  LEU62       0.0297
    117  CG        27.9380   65.1910   32.4660 C.3    62  LEU62       0.0022
    118  CD1       27.0160   64.4140   31.5320 C.3    62  LEU62       0.0001
    119  CD2       28.7450   66.1940   31.6600 C.3    62  LEU62       0.0001
    120  N         29.8630   59.7790   22.2230 N.3   106  THR106     -0.1218
    121  CA        29.4290   61.0060   22.8090 C.3   106  THR106      0.1862
    122  C         30.4840   62.0910   22.6430 C.2   106  THR106      0.2287
    123  O         31.6730   61.7880   22.5270 O.2   106  THR106     -0.2866
    124  CB        29.0860   60.8280   24.2820 C.3   106  THR106      0.1770
    125  OG1       27.9310   59.9950   24.4050 O.3   106  THR106     -0.2211
    126  CG2       28.7440   62.1890   24.9140 C.3   106  THR106      0.0375
    127  N         31.2450   65.8680   24.4390 N.3   108  VAL108     -0.1245
    128  CA        30.8810   66.8520   25.4610 C.3   108  VAL108      0.1561
    129  C         31.6740   68.1500   25.2920 C.2   108  VAL108      0.2260
    130  O         32.9050   68.1490   25.3160 O.2   108  VAL108     -0.2867
    131  CB        31.1600   66.3100   26.8820 C.3   108  VAL108      0.0252
    132  CG1       30.6500   67.2820   27.9270 C.3   108  VAL108      0.0019
    133  CG2       30.5270   64.9530   27.0480 C.3   108  VAL108      0.0019
@<TRIPOS>BOND
     1    64    63    2
     2    63    62    1
     3   120   121    1
     4    61    62    1
     5    62    65    1
     6   123   122    2
     7   122   121    1
     8   121   124    1
     9    72    71    2
    10    82    81    2
    11    67    66   ar
    12    71    70    1
    13    71    75   am
    14    65    66    1
    15    56    57    2
    16    56    55    1
    17    76    75    1
    18    76    77    1
    19    70    69    1
    20    70    73    1
    21   124   125    1
    22   124   126    1
    23   127   128    1
    24    66    68   ar
    25    79    77   am
    26    79    80    1
    27    54    55    1
    28    55    58    1
    29    77    78    2
    30    81    80    1
    31   129   130    2
    32   129   128    1
    33    73    74    1
    34   128   131    1
    35    80    83    1
    36    58    59    1
    37    58    60    1
    38    83    85    1
    39    83    84    1
    40    52    51    2
    41   131   133    1
    42   131   132    1
    43    40    39    1
    44    39    36    1
    45    51    50    1
    46    53    50    1
    47    38    37    2
    48    36    37    1
    49    36    35    1
    50    96    95    1
    51    50    49    1
    52    35    29   am
    53    49    43   am
    54    26    24    1
    55    95    97    1
    56    95    94    1
    57    24    23    1
    58    24    25    1
    59    30    29    2
    60    22    21    2
    61    29    28    1
    62    23    20    1
    63    43    44    2
    64    43    42    1
    65    94    91    1
    66    21    20    1
    67    31    28    1
    68    31    32    1
    69    41    42    1
    70    20    19    1
    71   118   117    1
    72   119   117    1
    73    28    27    1
    74    42    45    1
    75    91    90    1
    76    91    92    1
    77    34    32   am
    78    86    87    1
    79    90    88   am
    80    32    33    2
    81   117   116    1
    82    19    12   am
    83    45    46    1
    84    92    93    2
    85   116   113    1
    86    88    87    1
    87    88    89    2
    88    13    12    2
    89    12    11    1
    90   115   114    2
    91    46    47   ar
    92    46    48   ar
    93   113   114    1
    94   113   112    1
    95    10    11    1
    96    11    14    1
    97   112   109   am
    98    14    15    1
    99   110   109    2
   100   109   108    1
   101   111   108    1
   102    15    16    1
   103   108   107    1
   104    17    16   ar
   105    16    18   ar
   106   107   100   am
   107   102   103    1
   108   102    99    1
   109   103   104    1
   110   100   101    2
   111   100    99    1
   112    99    98    1
   113   104   106   ar
   114   104   105   ar
   115     4     3    2
   116     9     7   am
   117     8     7    2
   118     7     6    1
   119     3     2    1
   120     6     5    1
   121     5     2    1
   122     2     1    1
