@<TRIPOS>MOLECULE
tmp/1eahA00.pdb
 220 212 0 0 0
SMALL
GASTEIGER

@<TRIPOS>ATOM
      1  N         22.8910   83.2380  105.9090 N.3    64  VAL64      -0.1245
      2  CA        23.3590   84.4670  105.2760 C.3    64  VAL64       0.1561
      3  C         22.8730   85.7340  105.9870 C.2    64  VAL64       0.2260
      4  O         23.3940   86.8220  105.7420 O.2    64  VAL64      -0.2867
      5  CB        22.9780   84.5390  103.7680 C.3    64  VAL64       0.0252
      6  CG1       23.7400   83.4890  102.9860 C.3    64  VAL64       0.0019
      7  CG2       21.4720   84.3790  103.5730 C.3    64  VAL64       0.0019
      8  N         16.1090   94.0340  105.3040 N.3    79  TRP79      -0.1241
      9  CA        17.4440   93.4860  105.1000 C.3    79  TRP79       0.1605
     10  C         17.8130   93.5480  103.6280 C.2    79  TRP79       0.2264
     11  O         17.1410   92.9470  102.7970 O.2    79  TRP79      -0.2867
     12  CB        17.5070   92.0280  105.5660 C.3    79  TRP79       0.0550
     13  CG        18.8070   91.3390  105.2090 C.ar   79  TRP79       0.0003
     14  CD1       20.0550   91.6670  105.6590 C.ar   79  TRP79       0.0946
     15  CD2       18.9830   90.2160  104.3240 C.ar   79  TRP79       0.0152
     16  NE1       20.9910   90.8280  105.1100 N.ar   79  TRP79      -0.2442
     17  CE2       20.3650   89.9280  104.2890 C.ar   79  TRP79       0.0810
     18  CE3       18.1110   89.4280  103.5620 C.ar   79  TRP79       0.0012
     19  CZ2       20.8980   88.8800  103.5250 C.ar   79  TRP79       0.0191
     20  CZ3       18.6440   88.3880  102.7990 C.ar   79  TRP79       0.0001
     21  CH2       20.0210   88.1250  102.7890 C.ar   79  TRP79       0.0015
     22  N         19.4130   92.3530  100.5770 N.3    81  ILE81      -0.1231
     23  CA        19.8700   91.0230  100.1730 C.3    81  ILE81       0.1692
     24  C         21.3470   90.9360   99.7540 C.2    81  ILE81       0.2593
     25  O         21.8060   91.6690   98.8690 O.2    81  ILE81      -0.2718
     26  CB        18.9590   90.4410   99.0640 C.3    81  ILE81       0.0266
     27  CG1       17.5270   90.3310   99.5830 C.3    81  ILE81       0.0019
     28  CG2       19.4620   89.0810   98.6150 C.3    81  ILE81       0.0020
     29  CD1       16.5180   89.9940   98.5280 C.3    81  ILE81       0.0001
     30  N         22.0790   90.0270  100.3960 N.am   82  THR82      -0.1939
     31  CA        23.4970   89.8130  100.1210 C.3    82  THR82       0.2028
     32  C         23.9780   88.4880  100.7240 C.2    82  THR82       0.2642
     33  O         23.2870   87.8850  101.5440 O.2    82  THR82      -0.2714
     34  CB        24.3630   90.9800  100.6900 C.3    82  THR82       0.1808
     35  OG1       25.7410   90.7720  100.3480 O.3    82  THR82      -0.2208
     36  CG2       24.2320   91.0770  102.1980 C.3    82  THR82       0.0379
     37  N         25.1400   88.0210  100.2710 N.am   83  TYR83      -0.1973
     38  CA        25.7420   86.7880  100.7810 C.3    83  TYR83       0.1639
     39  C         27.0260   87.1290  101.5450 C.2    83  TYR83       0.2290
     40  O         27.6900   86.2570  102.1060 O.2    83  TYR83      -0.2864
     41  CB        26.0530   85.8110   99.6330 C.3    83  TYR83       0.0560
     42  CG        27.1100   86.2740   98.6440 C.ar   83  TYR83      -0.0198
     43  CD1       28.4720   86.0780   98.8980 C.ar   83  TYR83      -0.0009
     44  CD2       26.7480   86.8910   97.4440 C.ar   83  TYR83      -0.0009
     45  CE1       29.4410   86.4810   97.9850 C.ar   83  TYR83       0.0417
     46  CE2       27.7120   87.2980   96.5180 C.ar   83  TYR83       0.0417
     47  CZ        29.0570   87.0890   96.7930 C.ar   83  TYR83       0.1957
     48  OH        30.0150   87.4770   95.8760 O.3    83  TYR83      -0.2866
     49  N         31.9240   80.4210   97.8030 N.3    93  LEU93      -0.1245
     50  CA        31.5290   80.9850   96.5160 C.3    93  LEU93       0.1561
     51  C         32.7160   81.6350   95.8240 C.2    93  LEU93       0.2260
     52  O         32.8510   81.5520   94.6040 O.2    93  LEU93      -0.2867
     53  CB        30.4250   82.0330   96.6940 C.3    93  LEU93       0.0270
     54  CG        28.9940   81.5530   96.9220 C.3    93  LEU93       0.0019
     55  CD1       28.1010   82.7340   97.2400 C.3    93  LEU93       0.0001
     56  CD2       28.4910   80.8010   95.6980 C.3    93  LEU93       0.0001
     57  N         29.3230   82.5830   88.6700 N.3    99  SER99      -0.1217
     58  CA        28.4640   81.4650   89.0230 C.3    99  SER99       0.1889
     59  C         27.0840   81.6520   88.4250 C.2    99  SER99       0.2288
     60  O         26.6960   82.7500   88.0350 O.2    99  SER99      -0.2866
     61  CB        28.3680   81.2900   90.5400 C.3    99  SER99       0.2089
     62  OG        27.7810   82.4110   91.1710 O.3    99  SER99      -0.2183
     63  N         23.1990   79.7300   89.1640 N.3   101  PHE101     -0.1241
     64  CA        22.4320   78.7100   89.8710 C.3   101  PHE101      0.1605
     65  C         21.0730   79.2260   90.2960 C.2   101  PHE101      0.2264
     66  O         20.7420   80.3870   90.0660 O.2   101  PHE101     -0.2867
     67  CB        23.1960   78.2200   91.1170 C.3   101  PHE101      0.0534
     68  CG        23.7160   79.3360   92.0110 C.ar  101  PHE101     -0.0203
     69  CD1       22.8490   80.1390   92.7560 C.ar  101  PHE101     -0.0042
     70  CD2       25.0790   79.5900   92.0940 C.ar  101  PHE101     -0.0042
     71  CE1       23.3400   81.1720   93.5570 C.ar  101  PHE101     -0.0003
     72  CE2       25.5690   80.6210   92.8980 C.ar  101  PHE101     -0.0003
     73  CZ        24.6970   81.4090   93.6240 C.ar  101  PHE101     -0.0000
     74  N         18.2600   79.3300   93.6520 N.3   103  MET103     -0.1245
     75  CA        18.4410   79.4060   95.0910 C.3   103  MET103      0.1570
     76  C         17.2560   78.9080   95.8670 C.2   103  MET103      0.2261
     77  O         16.1120   79.1190   95.4870 O.2   103  MET103     -0.2867
     78  CB        18.7430   80.8320   95.5210 C.3   103  MET103      0.0387
     79  CG        19.9030   81.4350   94.8010 C.3   103  MET103      0.0595
     80  SD        20.2290   83.0780   95.3570 S.3   103  MET103     -0.1393
     81  CE        19.0310   83.9740   94.3490 C.3   103  MET103      0.0692
     82  N         15.6780   79.1760   99.6320 N.3   105  PHE105     -0.1241
     83  CA        15.7360   79.9050  100.8930 C.3   105  PHE105      0.1605
     84  C         14.8520   79.2510  101.9410 C.2   105  PHE105      0.2264
     85  O         13.6850   78.9750  101.6820 O.2   105  PHE105     -0.2867
     86  CB        15.2930   81.3520  100.6940 C.3   105  PHE105      0.0534
     87  CG        16.3050   82.2020   99.9970 C.ar  105  PHE105     -0.0203
     88  CD1       16.3220   82.2910   98.6120 C.ar  105  PHE105     -0.0042
     89  CD2       17.2520   82.9150  100.7250 C.ar  105  PHE105     -0.0042
     90  CE1       17.2760   83.0800   97.9590 C.ar  105  PHE105     -0.0003
     91  CE2       18.2080   83.7060  100.0760 C.ar  105  PHE105     -0.0003
     92  CZ        18.2160   83.7850   98.6930 C.ar  105  PHE105     -0.0000
     93  N         13.6780   79.6140  106.0190 N.3   107  PHE107     -0.1241
     94  CA        13.6350   80.5690  107.1150 C.3   107  PHE107      0.1605
     95  C         13.3160   79.9290  108.4560 C.2   107  PHE107      0.2264
     96  O         12.2460   79.3460  108.6380 O.2   107  PHE107     -0.2867
     97  CB        12.6000   81.6580  106.8170 C.3   107  PHE107      0.0534
     98  CG        12.7420   82.2800  105.4510 C.ar  107  PHE107     -0.0203
     99  CD1       12.1270   81.7070  104.3420 C.ar  107  PHE107     -0.0042
    100  CD2       13.4850   83.4400  105.2690 C.ar  107  PHE107     -0.0042
    101  CE1       12.2560   82.2800  103.0740 C.ar  107  PHE107     -0.0003
    102  CE2       13.6140   84.0150  104.0030 C.ar  107  PHE107     -0.0003
    103  CZ        13.0000   83.4330  102.9120 C.ar  107  PHE107     -0.0000
    104  N          7.0620   88.0460  105.3030 N.3   128  ILE128     -0.1245
    105  CA         8.3660   88.3010  104.7160 C.3   128  ILE128      0.1561
    106  C          8.0940   88.7370  103.2870 C.2   128  ILE128      0.2260
    107  O          7.6980   87.9310  102.4500 O.2   128  ILE128     -0.2867
    108  CB         9.2370   87.0380  104.7330 C.3   128  ILE128      0.0252
    109  CG1        9.3270   86.5090  106.1640 C.3   128  ILE128      0.0019
    110  CG2       10.6220   87.3500  104.1780 C.3   128  ILE128      0.0019
    111  CD1       10.0960   85.2420  106.3120 C.3   128  ILE128      0.0001
    112  N          9.3200   90.5200   99.7360 N.3   130  TYR130     -0.1241
    113  CA        10.4850   90.8080   98.9210 C.3   130  TYR130      0.1605
    114  C         10.2070   92.1080   98.1750 C.2   130  TYR130      0.2264
    115  O          9.1780   92.2540   97.5180 O.2   130  TYR130     -0.2867
    116  CB        10.7460   89.6790   97.9300 C.3   130  TYR130      0.0534
    117  CG        11.7870   90.0110   96.8870 C.ar  130  TYR130     -0.0201
    118  CD1       13.0320   90.5140   97.2530 C.ar  130  TYR130     -0.0009
    119  CD2       11.5210   89.8360   95.5280 C.ar  130  TYR130     -0.0009
    120  CE1       13.9790   90.8440   96.2920 C.ar  130  TYR130      0.0417
    121  CE2       12.4630   90.1710   94.5620 C.ar  130  TYR130      0.0417
    122  CZ        13.6890   90.6660   94.9520 C.ar  130  TYR130      0.1957
    123  OH        14.6280   90.9990   94.0020 O.3   130  TYR130     -0.2866
    124  N          6.2930   89.4190   95.9630 N.3   152  PRO152     -0.2116
    125  CA         6.0670   88.0850   96.5250 C.3   152  PRO152      0.1372
    126  C          6.2050   88.1630   98.0530 C.2   152  PRO152      0.2244
    127  O          7.1790   88.7150   98.5610 O.2   152  PRO152     -0.2868
    128  CB         7.2060   87.2520   95.9280 C.3   152  PRO152      0.0268
    129  CG         7.6910   88.0420   94.7580 C.3   152  PRO152      0.0207
    130  CD         7.5680   89.4590   95.2220 C.3   152  PRO152      0.0892
    131  N          5.6930   85.9810  101.9330 N.3   154  VAL154     -0.1245
    132  CA         5.6040   84.6780  102.5760 C.3   154  VAL154      0.1561
    133  C          5.0450   84.9340  103.9740 C.2   154  VAL154      0.2260
    134  O          5.5760   85.7560  104.7180 O.2   154  VAL154     -0.2867
    135  CB         6.9730   83.9750  102.7030 C.3   154  VAL154      0.0252
    136  CG1        6.7940   82.6110  103.3410 C.3   154  VAL154      0.0019
    137  CG2        7.6310   83.8330  101.3480 C.3   154  VAL154      0.0019
    138  N         11.2470   78.6980  100.0290 N.3   165  ILE165     -0.1231
    139  CA        10.8660   79.0690   98.6690 C.3   165  ILE165      0.1692
    140  C         12.0860   78.9590   97.7420 C.2   165  ILE165      0.2593
    141  O         13.2260   78.9300   98.2140 O.2   165  ILE165     -0.2718
    142  CB        10.2160   80.5080   98.5910 C.3   165  ILE165      0.0266
    143  CG1       11.1200   81.5780   99.2190 C.3   165  ILE165      0.0019
    144  CG2        8.8570   80.5240   99.2670 C.3   165  ILE165      0.0020
    145  CD1       12.1670   82.1250   98.3030 C.3   165  ILE165      0.0001
    146  N         11.8360   78.8290   96.4400 N.am  166  SER166     -0.1938
    147  CA        12.8950   78.7320   95.4290 C.3   166  SER166      0.2055
    148  C         12.8750   79.9800   94.5540 C.2   166  SER166      0.2642
    149  O         11.8150   80.5370   94.2680 O.2   166  SER166     -0.2714
    150  CB        12.7080   77.5010   94.5380 C.3   166  SER166      0.2130
    151  OG        13.0110   76.3020   95.2180 O.3   166  SER166     -0.2179
    152  N         14.0620   80.4230   94.1510 N.am  167  VAL167     -0.1977
    153  CA        14.2350   81.6070   93.3120 C.3   167  VAL167      0.1596
    154  C         15.0700   81.1770   92.0980 C.2   167  VAL167      0.2287
    155  O         16.0390   80.4260   92.2410 O.2   167  VAL167     -0.2864
    156  CB        14.9910   82.7380   94.0750 C.3   167  VAL167      0.0276
    157  CG1       15.0850   83.9940   93.2300 C.3   167  VAL167      0.0022
    158  CG2       14.3040   83.0450   95.3900 C.3   167  VAL167      0.0022
    159  N         18.3020   84.9940   88.7100 N.3   170  VAL170     -0.1245
    160  CA        17.8140   86.3540   88.4750 C.3   170  VAL170      0.1561
    161  C         18.8010   87.4340   88.0430 C.2   170  VAL170      0.2260
    162  O         18.4510   88.6190   88.0400 O.2   170  VAL170     -0.2867
    163  CB        17.0190   86.8880   89.7180 C.3   170  VAL170      0.0252
    164  CG1       15.7500   86.0770   89.9230 C.3   170  VAL170      0.0019
    165  CG2       17.8930   86.8700   90.9750 C.3   170  VAL170      0.0019
    166  N         26.4790   85.3830   87.6030 N.3   176  TYR176     -0.1227
    167  CA        26.7100   86.2530   88.7480 C.3   176  TYR176      0.1736
    168  C         28.2190   86.4880   88.8240 C.2   176  TYR176      0.2596
    169  O         29.0040   85.5610   88.6400 O.2   176  TYR176     -0.2718
    170  CB        26.2820   85.5750   90.0520 C.3   176  TYR176      0.0548
    171  CG        24.8020   85.3740   90.2520 C.ar  176  TYR176     -0.0200
    172  CD1       23.9080   86.4340   90.1190 C.ar  176  TYR176     -0.0009
    173  CD2       24.2990   84.1250   90.6300 C.ar  176  TYR176     -0.0009
    174  CE1       22.5550   86.2560   90.3600 C.ar  176  TYR176      0.0417
    175  CE2       22.9510   83.9360   90.8730 C.ar  176  TYR176      0.0417
    176  CZ        22.0860   85.0040   90.7360 C.ar  176  TYR176      0.1957
    177  OH        20.7470   84.8240   90.9820 O.3   176  TYR176     -0.2866
    178  N         28.6260   87.7250   89.0760 N.am  177  SER177     -0.1938
    179  CA        30.0440   88.0520   89.2090 C.3   177  SER177      0.2055
    180  C         30.4140   88.1140   90.6880 C.2   177  SER177      0.2643
    181  O         29.8100   88.8670   91.4430 O.2   177  SER177     -0.2714
    182  CB        30.3550   89.4040   88.5670 C.3   177  SER177      0.2130
    183  OG        30.1870   89.3620   87.1670 O.3   177  SER177     -0.2179
    184  N         31.3620   87.2890   91.1120 N.am  178  HIS178     -0.1973
    185  CA        31.8020   87.3120   92.4950 C.3   178  HIS178      0.1656
    186  C         32.8270   88.4270   92.6540 C.2   178  HIS178      0.2291
    187  O         33.0600   88.9160   93.7610 O.2   178  HIS178     -0.2864
    188  CB        32.3960   85.9620   92.9050 C.3   178  HIS178      0.0771
    189  CG        31.4160   84.8370   92.8480 C.ar  178  HIS178      0.0820
    190  ND1       31.7790   83.5090   92.9170 N.ar  178  HIS178     -0.2267
    191  CD2       30.0660   84.8500   92.7070 C.ar  178  HIS178      0.1154
    192  CE1       30.7050   82.7550   92.8210 C.ar  178  HIS178      0.1986
    193  NE2       29.6550   83.5380   92.6910 N.ar  178  HIS178     -0.2212
    194  N         19.9710   93.2960   94.2190 N.3   208  PHE208     -0.1241
    195  CA        18.8280   92.4010   94.3370 C.3   208  PHE208      0.1605
    196  C         17.6580   92.8440   95.1920 C.2   208  PHE208      0.2264
    197  O         16.7340   92.0660   95.4240 O.2   208  PHE208     -0.2867
    198  CB        19.3120   91.0430   94.8260 C.3   208  PHE208      0.0534
    199  CG        20.4800   90.5110   94.0510 C.ar  208  PHE208     -0.0203
    200  CD1       20.3340   90.1570   92.7140 C.ar  208  PHE208     -0.0042
    201  CD2       21.7350   90.3940   94.6420 C.ar  208  PHE208     -0.0042
    202  CE1       21.4190   89.6950   91.9730 C.ar  208  PHE208     -0.0003
    203  CE2       22.8280   89.9310   93.9020 C.ar  208  PHE208     -0.0003
    204  CZ        22.6680   89.5810   92.5710 C.ar  208  PHE208     -0.0000
    205  N         14.5500   92.4540  101.7950 N.3   211  LEU211     -0.1245
    206  CA        13.4310   91.7900  102.4490 C.3   211  LEU211      0.1561
    207  C         12.9000   92.6660  103.5670 C.2   211  LEU211      0.2260
    208  O         13.6760   93.2220  104.3300 O.2   211  LEU211     -0.2867
    209  CB        13.8800   90.4620  103.0590 C.3   211  LEU211      0.0270
    210  CG        14.3770   89.3370  102.1600 C.3   211  LEU211      0.0019
    211  CD1       14.7250   88.1420  103.0210 C.3   211  LEU211      0.0001
    212  CD2       13.3110   88.9760  101.1550 C.3   211  LEU211      0.0001
    213  N         20.4000   79.8990  102.8000 N.3   232  MET232     -0.1245
    214  CA        20.3420   79.8200  101.3490 C.3   232  MET232      0.1570
    215  C         21.2070   78.6790  100.8190 C.2   232  MET232      0.2261
    216  O         22.2890   78.4210  101.3370 O.2   232  MET232     -0.2867
    217  CB        20.7590   81.1610  100.7410 C.3   232  MET232      0.0387
    218  CG        20.7290   81.2140   99.2190 C.3   232  MET232      0.0595
    219  SD        22.3740   80.9940   98.5010 S.3   232  MET232     -0.1393
    220  CE        21.9880   80.5990   96.9030 C.3   232  MET232      0.0692
@<TRIPOS>BOND
     1   183   182    1
     2   166   167    1
     3    60    59    2
     4   162   161    2
     5   161   160    1
     6    59    58    1
     7   160   159    1
     8   160   163    1
     9   182   179    1
    10   169   168    2
    11    57    58    1
    12   167   168    1
    13   167   170    1
    14   168   178   am
    15    58    61    1
    16   178   179    1
    17    63    64    1
    18   179   180    1
    19   163   164    1
    20   163   165    1
    21    64    65    1
    22    64    67    1
    23   170   171    1
    24    66    65    2
    25   172   171   ar
    26   172   174   ar
    27   171   173   ar
    28   174   176   ar
    29    61    62    1
    30   173   175   ar
    31   180   184   am
    32   180   181    2
    33   176   175   ar
    34   176   177    1
    35   184   185    1
    36    67    68    1
    37   202   204   ar
    38   202   200   ar
    39    68    70   ar
    40    68    69   ar
    41    70    72   ar
    42   154   155    2
    43   154   153    1
    44   185   186    1
    45   185   188    1
    46   204   203   ar
    47   186   187    2
    48   193   191   ar
    49   193   192   ar
    50   191   189   ar
    51   200   199   ar
    52    69    71   ar
    53   192   190   ar
    54   189   188    1
    55   189   190   ar
    56    72    73   ar
    57   157   156    1
    58   153   156    1
    59   153   152    1
    60    71    73   ar
    61    74    75    1
    62   203   201   ar
    63   123   122    1
    64   199   201   ar
    65   199   198    1
    66   156   158    1
    67   152   148   am
    68   194   195    1
    69   149   148    2
    70   195   198    1
    71   195   196    1
    72    81    80    1
    73   150   151    1
    74   150   147    1
    75   148   147    1
    76   121   122   ar
    77   121   119   ar
    78    52    51    2
    79   129   130    1
    80   129   128    1
    81    79    80    1
    82    79    78    1
    83   122   120   ar
    84    75    78    1
    85    75    76    1
    86   196   197    2
    87   130   124    1
    88   147   146    1
    89    77    76    2
    90   119   117   ar
    91    56    54    1
    92    51    50    1
    93    48    47    1
    94   128   125    1
    95   124   125    1
    96   120   118   ar
    97   146   140   am
    98    50    53    1
    99    50    49    1
   100    46    47   ar
   101    46    44   ar
   102   125   126    1
   103    53    54    1
   104    47    45   ar
   105   117   118   ar
   106   117   116    1
   107   220   219    1
   108    54    55    1
   109    44    42   ar
   110   115   114    2
   111   140   141    2
   112   140   139    1
   113   116   113    1
   114    90    88   ar
   115    90    92   ar
   116    45    43   ar
   117   126   127    2
   118   114   113    1
   119   145   143    1
   120   219   218    1
   121    29    27    1
   122   142   139    1
   123   142   143    1
   124   142   144    1
   125    88    87   ar
   126    28    26    1
   127    42    43   ar
   128    42    41    1
   129   139   138    1
   130    92    91   ar
   131    25    24    2
   132   113   112    1
   133    26    27    1
   134    26    23    1
   135   218   217    1
   136    82    83    1
   137    41    38    1
   138    24    23    1
   139    24    30   am
   140    87    86    1
   141    87    89   ar
   142    91    89   ar
   143    31    30    1
   144    31    34    1
   145    31    32    1
   146    23    22    1
   147    37    32   am
   148    37    38    1
   149    35    34    1
   150    34    36    1
   151    86    83    1
   152    32    33    2
   153   217   214    1
   154    38    39    1
   155   215   216    2
   156   215   214    1
   157    83    84    1
   158   212   210    1
   159   137   135    1
   160   214   213    1
   161    39    40    2
   162    85    84    2
   163   205   206    1
   164   131   132    1
   165   210   211    1
   166   210   209    1
   167   206   209    1
   168   206   207    1
   169   107   106    2
   170   132   135    1
   171   132   133    1
   172   135   136    1
   173    21    20   ar
   174    21    19   ar
   175    11    10    2
   176    20    18   ar
   177   103   101   ar
   178   103   102   ar
   179     6     5    1
   180   101    99   ar
   181   106   105    1
   182    19    17   ar
   183    18    15   ar
   184   207   208    2
   185     7     5    1
   186    10     9    1
   187     5     2    1
   188   133   134    2
   189   102   100   ar
   190   110   108    1
   191    17    15   ar
   192    17    16   ar
   193    15    13   ar
   194    99    98   ar
   195   105   108    1
   196   105   104    1
   197   108   109    1
   198     9     8    1
   199     9    12    1
   200    16    14   ar
   201    13    12    1
   202    13    14   ar
   203   100    98   ar
   204     2     1    1
   205     2     3    1
   206    98    97    1
   207     4     3    2
   208    93    94    1
   209   109   111    1
   210    97    94    1
   211    94    95    1
   212    95    96    2
