@<TRIPOS>MOLECULE
tmp/1eakA00.pdb
 183 175 0 0 0
SMALL
GASTEIGER

@<TRIPOS>ATOM
      1  N         37.1290   60.2110   21.1960 N.3   100  TYR100     -0.1241
      2  CA        36.9020   61.6410   21.0240 C.3   100  TYR100      0.1605
      3  C         36.0430   61.9390   19.8040 C.2   100  TYR100      0.2264
      4  O         35.5150   61.0510   19.1240 O.2   100  TYR100     -0.2867
      5  CB        38.2630   62.3460   20.8820 C.3   100  TYR100      0.0534
      6  CG        39.1470   62.2170   22.1050 C.ar  100  TYR100     -0.0201
      7  CD1       39.0800   63.1240   23.1580 C.ar  100  TYR100     -0.0009
      8  CD2       40.0480   61.1690   22.2110 C.ar  100  TYR100     -0.0009
      9  CE1       39.8940   62.9760   24.2720 C.ar  100  TYR100      0.0417
     10  CE2       40.8280   61.0240   23.3240 C.ar  100  TYR100      0.0417
     11  CZ        40.7680   61.9340   24.3540 C.ar  100  TYR100      0.1957
     12  OH        41.5230   61.8960   25.4940 O.3   100  TYR100     -0.2866
     13  N         36.3750   64.4050   16.1700 N.3   102  PRO102     -0.2116
     14  CA        37.2040   65.2750   15.3410 C.3   102  PRO102      0.1372
     15  C         36.8380   66.7440   15.4240 C.2   102  PRO102      0.2244
     16  O         37.7010   67.6070   15.2460 O.2   102  PRO102     -0.2868
     17  CB        36.9820   64.7600   13.9300 C.3   102  PRO102      0.0268
     18  CG        36.3870   63.4220   14.0920 C.3   102  PRO102      0.0207
     19  CD        35.5490   63.4900   15.3550 C.3   102  PRO102      0.0892
     20  N         27.9720   56.6110   16.9200 N.3   144  ARG144     -0.1245
     21  CA        26.8670   56.9560   16.0140 C.3   144  ARG144      0.1563
     22  C         25.8480   55.8170   15.9390 C.2   144  ARG144      0.2260
     23  O         26.1810   54.6550   16.1630 O.2   144  ARG144     -0.2867
     24  CB        27.3980   57.3130   14.6230 C.3   144  ARG144      0.0307
     25  CG        28.3880   56.3130   14.0530 C.3   144  ARG144      0.0489
     26  CD        29.3070   56.9670   13.0320 C.3   144  ARG144      0.2205
     27  NE        28.5830   57.8620   12.1320 N.pl3 144  ARG144     -0.0865
     28  CZ        28.0930   57.4990   10.9510 C.cat 144  ARG144      0.5346
     29  NH1       28.2480   56.2530   10.5240 N.pl3 144  ARG144      0.1354
     30  NH2       27.4490   58.3810   10.1990 N.pl3 144  ARG144      0.1354
     31  N         28.2400   60.7310   17.8130 N.3   178  ASP178     -0.1239
     32  CA        29.3530   61.1460   16.9830 C.3   178  ASP178      0.1674
     33  C         28.9100   61.7530   15.6660 C.2   178  ASP178      0.2266
     34  O         29.7410   62.1210   14.8110 O.2   178  ASP178     -0.2867
     35  CB        30.3010   59.9890   16.7290 C.3   178  ASP178      0.1410
     36  CG        31.5420   60.3940   15.9810 C.2   178  ASP178      0.3668
     37  OD1       32.2480   61.2930   16.4890 O.co2 178  ASP178     -0.2456
     38  OD2       31.8590   59.8580   14.9060 O.co2 178  ASP178     -0.2456
     39  N         41.1080   78.4930    2.0500 N.3   218  ASP218     -0.1239
     40  CA        42.4210   78.3910    1.4230 C.3   218  ASP218      0.1674
     41  C         42.6540   79.5860    0.5120 C.2   218  ASP218      0.2266
     42  O         43.5030   79.5480   -0.3790 O.2   218  ASP218     -0.2867
     43  CB        42.5540   77.0790    0.6490 C.3   218  ASP218      0.1410
     44  CG        41.6750   77.0420   -0.5840 C.2   218  ASP218      0.3668
     45  OD1       40.8580   77.9710   -0.7580 O.co2 218  ASP218     -0.2456
     46  OD2       41.8010   76.0840   -1.3750 O.co2 218  ASP218     -0.2456
     47  N         47.1500   75.1440   -0.9320 N.3   224  GLY224     -0.1225
     48  CA        45.8740   74.5710   -0.5920 C.3   224  GLY224      0.1811
     49  C         45.6420   74.3600    0.8840 C.2   224  GLY224      0.2280
     50  O         44.7080   73.6580    1.2840 O.2   224  GLY224     -0.2866
     51  N         44.4590   75.2170    4.6580 N.3   226  LEU226     -0.1245
     52  CA        43.3610   76.0220    5.2000 C.3   226  LEU226      0.1561
     53  C         43.8810   76.8160    6.4010 C.2   226  LEU226      0.2260
     54  O         44.5680   76.2940    7.2660 O.2   226  LEU226     -0.2867
     55  CB        42.1580   75.1810    5.5970 C.3   226  LEU226      0.0270
     56  CG        41.6000   74.1520    4.6300 C.3   226  LEU226      0.0019
     57  CD1       40.5220   73.3090    5.3060 C.3   226  LEU226      0.0001
     58  CD2       41.0560   74.8020    3.3730 C.3   226  LEU226      0.0001
     59  N         43.7390   69.2220    9.4910 N.3   245  HIS245     -0.1226
     60  CA        43.1020   68.4350    8.4590 C.3   245  HIS245      0.1752
     61  C         44.0540   67.3890    7.9110 C.2   245  HIS245      0.2596
     62  O         44.9710   67.7540    7.1750 O.2   245  HIS245     -0.2718
     63  CB        42.6020   69.3170    7.3080 C.3   245  HIS245      0.0759
     64  CG        41.7260   68.5220    6.3870 C.ar  245  HIS245      0.0818
     65  ND1       42.1290   67.3480    5.8200 N.ar  245  HIS245     -0.2268
     66  CD2       40.4620   68.7480    5.9650 C.ar  245  HIS245      0.1154
     67  CE1       41.1600   66.8700    5.0820 C.ar  245  HIS245      0.1986
     68  NE2       40.1500   67.7020    5.1430 N.ar  245  HIS245     -0.2212
     69  N         43.8450   66.1300    8.2520 N.am  246  GLU246     -0.1965
     70  CA        44.6590   64.9980    7.9330 C.3   246  GLU246      0.1733
     71  C         45.0300   64.7820    6.4890 C.2   246  GLU246      0.2616
     72  O         45.8750   63.8980    6.2400 O.2   246  GLU246     -0.2715
     73  CB        44.0760   63.6900    8.4790 C.3   246  GLU246      0.0429
     74  CG        42.6680   63.3940    7.9990 C.3   246  GLU246      0.1163
     75  CD        41.5950   64.0380    8.8220 C.2   246  GLU246      0.3649
     76  OE1       41.6540   65.2490    9.0410 O.co2 246  GLU246     -0.2457
     77  OE2       40.6890   63.2950    9.2520 O.co2 246  GLU246     -0.2457
     78  N         44.3830   65.4500    5.5270 N.am  247  ALA247     -0.1963
     79  CA        44.6690   65.2260    4.1310 C.3   247  ALA247      0.1728
     80  C         45.7150   66.2950    3.7840 C.2   247  ALA247      0.2616
     81  O         46.2870   66.3020    2.7130 O.2   247  ALA247     -0.2715
     82  CB        43.4830   65.4470    3.2550 C.3   247  ALA247      0.0334
     83  N         45.9560   67.1870    4.7410 N.am  248  LEU248     -0.1977
     84  CA        46.9000   68.2570    4.5800 C.3   248  LEU248      0.1596
     85  C         48.2430   67.9740    5.2350 C.2   248  LEU248      0.2287
     86  O         49.2940   68.1760    4.6220 O.2   248  LEU248     -0.2864
     87  CB        46.3520   69.5200    5.3130 C.3   248  LEU248      0.0297
     88  CG        45.2450   70.2800    4.5800 C.3   248  LEU248      0.0022
     89  CD1       45.0580   71.6670    5.1700 C.3   248  LEU248      0.0001
     90  CD2       45.5510   70.3680    3.0910 C.3   248  LEU248      0.0001
     91  N         45.7230   57.9410    1.9450 N.3   262  PHE262     -0.1241
     92  CA        44.5330   57.1050    1.9660 C.3   262  PHE262      0.1605
     93  C         44.2780   56.3960    0.6480 C.2   262  PHE262      0.2264
     94  O         44.2480   57.0590   -0.3870 O.2   262  PHE262     -0.2867
     95  CB        43.3220   57.9880    2.2960 C.3   262  PHE262      0.0534
     96  CG        43.3430   58.6440    3.6320 C.ar  262  PHE262     -0.0203
     97  CD1       43.5250   57.9080    4.7830 C.ar  262  PHE262     -0.0042
     98  CD2       43.1850   60.0040    3.7670 C.ar  262  PHE262     -0.0042
     99  CE1       43.5460   58.5100    6.0230 C.ar  262  PHE262     -0.0003
    100  CE2       43.2040   60.6210    4.9900 C.ar  262  PHE262     -0.0003
    101  CZ        43.3610   59.8670    6.1250 C.ar  262  PHE262     -0.0000
    102  N         40.8190   54.0240    4.9750 N.3   272  ASP272     -0.1225
    103  CA        40.6860   55.1730    4.0870 C.3   272  ASP272      0.1805
    104  C         40.5250   56.4550    4.8920 C.2   272  ASP272      0.2598
    105  O         40.2870   57.5360    4.3840 O.2   272  ASP272     -0.2718
    106  CB        39.4150   54.9940    3.2530 C.3   272  ASP272      0.1424
    107  CG        39.3290   56.0270    2.1400 C.2   272  ASP272      0.3668
    108  OD1       40.2640   55.9560    1.3110 O.co2 272  ASP272     -0.2456
    109  OD2       38.3770   56.8220    2.1460 O.co2 272  ASP272     -0.2456
    110  N         40.7080   56.3450    6.2010 N.am  273  SER273     -0.1938
    111  CA        40.6310   57.5640    7.0210 C.3   273  SER273      0.2055
    112  C         41.4700   57.3490    8.2750 C.2   273  SER273      0.2643
    113  O         41.9630   56.2580    8.4530 O.2   273  SER273     -0.2714
    114  CB        39.1740   57.6550    7.4960 C.3   273  SER273      0.2130
    115  OG        39.0240   56.8790    8.6760 O.3   273  SER273     -0.2179
    116  N         41.5620   58.3640    9.1310 N.am  274  CYS274     -0.1967
    117  CA        42.3040   58.0720   10.3850 C.3   274  CYS274      0.1712
    118  C         41.5610   57.0820   11.2440 C.2   274  CYS274      0.2296
    119  O         40.3420   56.9910   11.1360 O.2   274  CYS274     -0.2864
    120  CB        42.6060   59.3700   11.1120 C.3   274  CYS274      0.0983
    121  SG        43.3210   60.5360    9.9190 S.3   274  CYS274     -0.0798
    122  N         43.1420   59.3790   17.1940 N.3   284  ARG284     -0.1245
    123  CA        43.2120   58.9090   15.8140 C.3   284  ARG284      0.1563
    124  C         44.6690   59.1030   15.3390 C.2   284  ARG284      0.2260
    125  O         45.3250   60.0550   15.7560 O.2   284  ARG284     -0.2867
    126  CB        42.2900   59.6800   14.8680 C.3   284  ARG284      0.0307
    127  CG        40.9620   60.1070   15.4410 C.3   284  ARG284      0.0489
    128  CD        39.8840   60.1570   14.3510 C.3   284  ARG284      0.2205
    129  NE        40.0530   61.2580   13.4060 N.pl3 284  ARG284     -0.0865
    130  CZ        40.1050   62.5450   13.6670 C.cat 284  ARG284      0.5346
    131  NH1       39.9870   62.9730   14.9110 N.pl3 284  ARG284      0.1354
    132  NH2       40.2910   63.4400   12.7020 N.pl3 284  ARG284      0.1354
    133  N         39.5730   67.9340   13.0800 N.3   304  THR304     -0.1203
    134  CA        39.3460   68.1740   11.6460 C.3   304  THR304      0.1994
    135  C         38.5170   69.4070   11.3630 C.2   304  THR304      0.2618
    136  O         37.5150   69.6510   12.0290 O.2   304  THR304     -0.2717
    137  CB        38.8130   66.9180   10.9790 C.3   304  THR304      0.1784
    138  OG1       39.7390   65.8380   11.1780 O.3   304  THR304     -0.2211
    139  CG2       38.6440   67.1420    9.4820 C.3   304  THR304      0.0376
    140  N         38.9400   70.1930   10.3790 N.am  305  ALA305     -0.1965
    141  CA        38.2370   71.4130    9.9960 C.3   305  ALA305      0.1728
    142  C         37.0860   71.0350    9.0760 C.2   305  ALA305      0.2616
    143  O         37.3690   70.5810    7.9650 O.2   305  ALA305     -0.2715
    144  CB        39.2480   72.2500    9.2270 C.3   305  ALA305      0.0334
    145  N         35.8780   71.2990    9.4980 N.am  306  MET306     -0.1963
    146  CA        34.6880   70.9190    8.7550 C.3   306  MET306      0.1736
    147  C         34.3570   72.0000    7.7440 C.2   306  MET306      0.2617
    148  O         33.9340   73.0960    8.1130 O.2   306  MET306     -0.2715
    149  CB        33.5000   70.7760    9.7270 C.3   306  MET306      0.0427
    150  CG        33.4630   69.4070   10.3990 C.3   306  MET306      0.0599
    151  SD        33.0770   68.1420    9.1580 S.3   306  MET306     -0.1393
    152  CE        31.2930   68.1780    9.1920 C.3   306  MET306      0.0692
    153  N         34.4840   71.6920    6.4570 N.am  307  SER307     -0.1950
    154  CA        34.0500   72.7160    5.5000 C.3   307  SER307      0.1924
    155  C         32.5300   72.7540    5.4220 C.2   307  SER307      0.2314
    156  O         31.9240   73.8140    5.5680 O.2   307  SER307     -0.2863
    157  CB        34.6270   72.4530    4.1190 C.3   307  SER307      0.2116
    158  OG        36.0290   72.6400    4.1140 O.3   307  SER307     -0.2180
    159  N         30.4500   65.5260    0.0940 N.3   314  GLU314     -0.1231
    160  CA        31.3680   64.8220    0.9620 C.3   314  GLU314      0.1699
    161  C         32.2010   65.8010    1.7760 C.2   314  GLU314      0.2593
    162  O         33.3930   65.5720    1.9690 O.2   314  GLU314     -0.2718
    163  CB        32.3020   63.9200    0.1590 C.3   314  GLU314      0.0402
    164  CG        31.7890   63.5310   -1.2150 C.3   314  GLU314      0.1161
    165  CD        32.1200   62.0990   -1.5690 C.2   314  GLU314      0.3649
    166  OE1       33.3110   61.7930   -1.7860 O.co2 314  GLU314     -0.2457
    167  OE2       31.1680   61.2870   -1.6180 O.co2 314  GLU314     -0.2457
    168  N         31.6180   66.8980    2.2460 N.am  315  GLY315     -0.1942
    169  CA        32.4530   67.8340    2.9990 C.3   315  GLY315      0.2014
    170  C         33.0730   68.8910    2.1020 C.2   315  GLY315      0.2639
    171  O         33.5020   69.9320    2.6270 O.2   315  GLY315     -0.2714
    172  N         33.0520   68.7350    0.7870 N.am  316  ALA316     -0.1963
    173  CA        33.6090   69.7460   -0.1100 C.3   316  ALA316      0.1713
    174  C         33.1870   71.1590    0.2840 C.2   316  ALA316      0.2458
    175  O         32.0120   71.3980    0.5670 O.2   316  ALA316     -0.2730
    176  CB        33.2280   69.4420   -1.5470 C.3   316  ALA316      0.0333
    177  N         34.1170   72.1050    0.2810 N.am  317  PRO317     -0.2727
    178  CA        33.9190   73.4780    0.6770 C.3   317  PRO317      0.1402
    179  C         32.9490   74.2830   -0.1660 C.2   317  PRO317      0.2269
    180  O         32.9360   74.1740   -1.3900 O.2   317  PRO317     -0.2865
    181  CB        35.3210   74.1010    0.5530 C.3   317  PRO317      0.0296
    182  CG        36.2370   72.9370    0.7570 C.3   317  PRO317      0.0237
    183  CD        35.5580   71.8200    0.0150 C.3   317  PRO317      0.0939
@<TRIPOS>BOND
     1   166   165   ar
     2   167   165   ar
     3   165   164    1
     4   176   173    1
     5   180   179    2
     6    46    44   ar
     7   164   163    1
     8    47    48    1
     9    45    44   ar
    10    48    49    1
    11    44    43    1
    12    94    93    2
    13    42    41    2
    14   179   178    1
    15   173   174    1
    16   173   172    1
    17   183   177    1
    18   183   182    1
    19   159   160    1
    20   163   160    1
    21   177   174   am
    22   177   178    1
    23   174   175    2
    24    41    40    1
    25   181   178    1
    26   181   182    1
    27    93    92    1
    28    43    40    1
    29   172   170   am
    30    49    50    2
    31   160   161    1
    32   108   107   ar
    33    40    39    1
    34   161   162    2
    35   161   168   am
    36    91    92    1
    37    92    95    1
    38   170   171    2
    39   170   169    1
    40   107   109   ar
    41   107   106    1
    42   168   169    1
    43    95    96    1
    44    81    80    2
    45    90    88    1
    46   106   103    1
    47    82    79    1
    48    58    56    1
    49    96    98   ar
    50    96    97   ar
    51    98   100   ar
    52    80    79    1
    53    80    83   am
    54   103   104    1
    55   103   102    1
    56   158   157    1
    57   157   154    1
    58    79    78    1
    59   105   104    2
    60    88    89    1
    61    88    87    1
    62    84    83    1
    63    84    85    1
    64    84    87    1
    65    86    85    2
    66    56    57    1
    67    56    55    1
    68    51    52    1
    69    97    99   ar
    70   104   110   am
    71   100   101   ar
    72    67    68   ar
    73    67    65   ar
    74    68    66   ar
    75    52    55    1
    76    52    53    1
    77   155   154    1
    78   155   156    2
    79   154   153    1
    80    78    71   am
    81    65    64   ar
    82    66    64   ar
    83    99   101   ar
    84   110   111    1
    85    72    71    2
    86    64    63    1
    87    53    54    2
    88   153   147   am
    89    71    70    1
    90   111   114    1
    91   111   112    1
    92    62    61    2
    93    63    60    1
    94   114   115    1
    95   147   148    2
    96   147   146    1
    97    61    69   am
    98    61    60    1
    99    70    69    1
   100    70    73    1
   101   143   142    2
   102    74    73    1
   103    74    75    1
   104   112   113    2
   105   112   116   am
   106    60    59    1
   107   146   145    1
   108   146   149    1
   109    75    76   ar
   110    75    77   ar
   111   142   145   am
   112   142   141    1
   113   116   117    1
   114   151   152    1
   115   151   150    1
   116   144   141    1
   117   139   137    1
   118   149   150    1
   119   121   120    1
   120   141   140    1
   121    30    28    1
   122   140   135   am
   123   117   120    1
   124   117   118    1
   125    29    28    1
   126    28    27    2
   127   137   138    1
   128   137   134    1
   129   119   118    2
   130   135   134    1
   131   135   136    2
   132   134   133    1
   133    27    26    1
   134   132   130    1
   135    26    25    1
   136   129   130    2
   137   129   128    1
   138   130   131    1
   139    17    18    1
   140    17    14    1
   141    25    24    1
   142    18    19    1
   143   128   127    1
   144    24    21    1
   145    34    33    2
   146   126   127    1
   147   126   123    1
   148    38    36   ar
   149    16    15    2
   150   124   125    2
   151   124   123    1
   152    14    15    1
   153    14    13    1
   154    19    13    1
   155    33    32    1
   156   123   122    1
   157    22    21    1
   158    22    23    2
   159    36    37   ar
   160    36    35    1
   161    21    20    1
   162    35    32    1
   163    32    31    1
   164     4     3    2
   165     3     2    1
   166     5     2    1
   167     5     6    1
   168     2     1    1
   169     6     8   ar
   170     6     7   ar
   171     8    10   ar
   172     7     9   ar
   173    10    11   ar
   174     9    11   ar
   175    11    12    1
