@<TRIPOS>MOLECULE
tmp/1eapB00.pdb
 96 96 0 0 0
SMALL
GASTEIGER

@<TRIPOS>ATOM
      1  N         13.5270    0.1650   40.1070 N.3    35  HIS35      -0.1241
      2  CA        12.8820   -1.0090   39.5340 C.3    35  HIS35       0.1621
      3  C         13.9870   -1.9320   39.0510 C.2    35  HIS35       0.2264
      4  O         15.1090   -1.4670   38.7860 O.2    35  HIS35      -0.2867
      5  CB        12.0260   -0.6840   38.3460 C.3    35  HIS35       0.0745
      6  CG        10.8880    0.2940   38.6360 C.ar   35  HIS35       0.0817
      7  ND1       10.9650    1.4830   39.2220 N.ar   35  HIS35      -0.2268
      8  CD2        9.5660    0.1080   38.2940 C.ar   35  HIS35       0.1154
      9  CE1        9.7510    1.9970   39.2340 C.ar   35  HIS35       0.1986
     10  NE2        8.9060    1.1730   38.6660 N.ar   35  HIS35      -0.2212
     11  N         14.8620   -4.9050   36.0830 N.3    37  VAL37      -0.1245
     12  CA        14.3230   -5.2830   34.7960 C.3    37  VAL37       0.1561
     13  C         15.1970   -6.4330   34.3210 C.2    37  VAL37       0.2260
     14  O         16.4130   -6.3660   34.5100 O.2    37  VAL37      -0.2867
     15  CB        14.3840   -4.0710   33.7850 C.3    37  VAL37       0.0252
     16  CG1       13.6970   -4.4300   32.4630 C.3    37  VAL37       0.0019
     17  CG2       13.6400   -2.8670   34.3370 C.3    37  VAL37       0.0019
     18  N          9.6950   -6.9000   33.4910 N.3    47  TRP47      -0.1241
     19  CA         9.7720   -6.1540   34.7430 C.3    47  TRP47       0.1605
     20  C          9.7420   -7.1030   35.9600 C.2    47  TRP47       0.2264
     21  O          8.8820   -7.9860   36.0250 O.2    47  TRP47      -0.2867
     22  CB         8.6030   -5.1470   34.7750 C.3    47  TRP47       0.0550
     23  CG         8.6800   -4.2510   35.9940 C.ar   47  TRP47       0.0003
     24  CD1        9.7440   -3.4080   36.2220 C.ar   47  TRP47       0.0946
     25  CD2        7.7500   -4.1870   36.9800 C.ar   47  TRP47       0.0152
     26  NE1        9.4940   -2.8160   37.3740 N.ar   47  TRP47      -0.2442
     27  CE2        8.3110   -3.2510   37.8340 C.ar   47  TRP47       0.0810
     28  CE3        6.5410   -4.7660   37.2690 C.ar   47  TRP47       0.0012
     29  CZ2        7.6580   -2.8820   38.9820 C.ar   47  TRP47       0.0191
     30  CZ3        5.8720   -4.4090   38.4240 C.ar   47  TRP47       0.0001
     31  CH2        6.4350   -3.4670   39.2660 C.ar   47  TRP47       0.0015
     32  N         17.0480    0.4120   37.5930 N.3    97  LYS97      -0.1245
     33  CA        16.9760    1.7490   37.0510 C.3    97  LYS97       0.1561
     34  C         16.1870    2.5380   38.0670 C.2    97  LYS97       0.2260
     35  O         15.2730    1.9800   38.7120 O.2    97  LYS97      -0.2867
     36  CB        16.2610    1.7520   35.7030 C.3    97  LYS97       0.0271
     37  CG        14.8200    1.2000   35.5600 C.3    97  LYS97       0.0035
     38  CD        13.6430    2.1590   35.7890 C.3    97  LYS97       0.0206
     39  CE        13.8140    3.3570   34.8710 C.3    97  LYS97       0.1093
     40  NZ        12.7220    4.3020   34.9610 N.3    97  LYS97      -0.1314
     41  N         13.4650    5.3750   38.9450 N.3    99  SER99      -0.1202
     42  CA        12.2860    5.7860   38.2180 C.3    99  SER99       0.2020
     43  C         12.4670    7.1350   37.5600 C.2    99  SER99       0.2619
     44  O         13.2530    7.9700   38.0430 O.2    99  SER99      -0.2717
     45  CB        11.0970    5.8360   39.1710 C.3    99  SER99       0.2103
     46  OG        11.3770    6.4710   40.4300 O.3    99  SER99      -0.2182
     47  N         11.7280    7.3580   36.4850 N.am  100  TYR100     -0.1961
     48  CA        11.7400    8.5990   35.7310 C.3   100  TYR100      0.1771
     49  C         10.5340    9.4030   36.1690 C.2   100  TYR100      0.2620
     50  O          9.4370    8.8680   35.9780 O.2   100  TYR100     -0.2715
     51  CB        11.6410    8.2580   34.2360 C.3   100  TYR100      0.0574
     52  CG        11.5500    9.3940   33.2280 C.ar  100  TYR100     -0.0198
     53  CD1       12.6990    9.9570   32.7090 C.ar  100  TYR100     -0.0009
     54  CD2       10.3240    9.8920   32.8500 C.ar  100  TYR100     -0.0009
     55  CE1       12.6220   11.0120   31.8280 C.ar  100  TYR100      0.0417
     56  CE2       10.2460   10.9510   31.9690 C.ar  100  TYR100      0.0417
     57  CZ        11.4010   11.5070   31.4610 C.ar  100  TYR100      0.1957
     58  OH        11.2970   12.5560   30.5570 O.3   100  TYR100     -0.2866
     59  N         10.6280   10.6090   36.7310 N.am  101  TYR101     -0.1960
     60  CA         9.4090   11.3700   36.9870 C.3   101  TYR101      0.1771
     61  C          9.1830   12.5170   35.9760 C.2   101  TYR101      0.2620
     62  O         10.1080   13.1250   35.3890 O.2   101  TYR101     -0.2715
     63  CB         9.4030   11.9690   38.3860 C.3   101  TYR101      0.0574
     64  CG         9.4740   10.9370   39.4940 C.ar  101  TYR101     -0.0198
     65  CD1        8.3320   10.3070   39.9200 C.ar  101  TYR101     -0.0009
     66  CD2       10.7160   10.6220   40.0380 C.ar  101  TYR101     -0.0009
     67  CE1        8.4510    9.3420   40.9050 C.ar  101  TYR101      0.0417
     68  CE2       10.8390    9.6650   41.0090 C.ar  101  TYR101      0.0417
     69  CZ         9.7010    9.0250   41.4330 C.ar  101  TYR101      0.1957
     70  OH         9.8480    7.9810   42.3400 O.3   101  TYR101     -0.2866
     71  N          7.8970   12.7480   35.6910 N.am  102  GLY102     -0.1954
     72  CA         7.4140   13.8220   34.8250 C.3   102  GLY102      0.1869
     73  C          8.1760   13.9760   33.5150 C.2   102  GLY102      0.2309
     74  O          8.2050   13.0790   32.6760 O.2   102  GLY102     -0.2863
     75  N         16.9480    9.1380   31.3140 N.3   107  ASP107     -0.1239
     76  CA        16.4940    8.0100   32.1430 C.3   107  ASP107      0.1674
     77  C         17.7200    7.1970   32.5570 C.2   107  ASP107      0.2266
     78  O         18.5210    6.7800   31.7030 O.2   107  ASP107     -0.2867
     79  CB        15.5610    7.1670   31.3320 C.3   107  ASP107      0.1410
     80  CG        14.6690    6.2440   32.1220 C.2   107  ASP107      0.3668
     81  OD1       14.3220    6.5230   33.2670 O.co2 107  ASP107     -0.2456
     82  OD2       14.2770    5.2320   31.5580 O.co2 107  ASP107     -0.2456
     83  N         19.7160    4.0990   33.7590 N.3   109  TRP109     -0.1241
     84  CA        19.7540    2.6380   33.8910 C.3   109  TRP109      0.1605
     85  C         21.1170    2.1760   34.4340 C.2   109  TRP109      0.2264
     86  O         22.1210    2.8840   34.2280 O.2   109  TRP109     -0.2867
     87  CB        19.5080    1.9960   32.5300 C.3   109  TRP109      0.0550
     88  CG        18.0480    2.0260   32.0650 C.ar  109  TRP109      0.0003
     89  CD1       17.4190    3.2080   31.7540 C.ar  109  TRP109      0.0946
     90  CD2       17.1930    0.9430   32.0240 C.ar  109  TRP109      0.0152
     91  NE1       16.1840    2.8770   31.5540 N.ar  109  TRP109     -0.2442
     92  CE2       15.9980    1.5550   31.7040 C.ar  109  TRP109      0.0810
     93  CE3       17.2370   -0.4300   32.1990 C.ar  109  TRP109      0.0012
     94  CZ2       14.8320    0.8330   31.5650 C.ar  109  TRP109      0.0191
     95  CZ3       16.0750   -1.1490   32.0460 C.ar  109  TRP109      0.0001
     96  CH2       14.8840   -0.5270   31.7360 C.ar  109  TRP109      0.0015
@<TRIPOS>BOND
     1    58    57    1
     2    75    76    1
     3    79    80    1
     4    79    76    1
     5    57    55   ar
     6    57    56   ar
     7    91    92   ar
     8    91    89   ar
     9    82    80   ar
    10    94    92   ar
    11    94    96   ar
    12    78    77    2
    13    92    90   ar
    14    96    95   ar
    15    89    88   ar
    16    55    53   ar
    17    56    54   ar
    18    90    88   ar
    19    90    93   ar
    20    95    93   ar
    21    88    87    1
    22    80    81   ar
    23    76    77    1
    24    16    15    1
    25    87    84    1
    26    74    73    2
    27    53    52   ar
    28    54    52   ar
    29    52    51    1
    30    18    19    1
    31    73    72    1
    32    83    84    1
    33    15    17    1
    34    15    12    1
    35    84    85    1
    36    86    85    2
    37    51    48    1
    38    13    14    2
    39    13    12    1
    40    19    22    1
    41    19    20    1
    42    22    23    1
    43    12    11    1
    44    72    71    1
    45    39    40    1
    46    39    38    1
    47    62    61    2
    48    37    36    1
    49    37    38    1
    50    71    61   am
    51    36    33    1
    52    48    49    1
    53    48    47    1
    54    20    21    2
    55    61    60    1
    56    50    49    2
    57    23    24   ar
    58    23    25   ar
    59    49    59   am
    60    24    26   ar
    61    47    43   am
    62    59    60    1
    63    25    28   ar
    64    25    27   ar
    65    60    63    1
    66    33    32    1
    67    33    34    1
    68    28    30   ar
    69    26    27   ar
    70    43    44    2
    71    43    42    1
    72    27    29   ar
    73    34    35    2
    74    42    41    1
    75    42    45    1
    76     8     6   ar
    77     8    10   ar
    78     5     6    1
    79     5     2    1
    80    63    64    1
    81    30    31   ar
    82     6     7   ar
    83    10     9   ar
    84     4     3    2
    85    29    31   ar
    86     3     2    1
    87    45    46    1
    88     7     9   ar
    89    64    65   ar
    90    64    66   ar
    91     2     1    1
    92    65    67   ar
    93    66    68   ar
    94    67    69   ar
    95    68    69   ar
    96    69    70    1
