@<TRIPOS>MOLECULE
tmp/1easA00.pdb
 166 161 0 0 0
SMALL
GASTEIGER

@<TRIPOS>ATOM
      1  N         -1.5060   25.4750   32.8100 N.3    29  THR29      -0.1203
      2  CA        -2.4780   24.4560   33.1910 C.3    29  THR29       0.1994
      3  C         -3.1230   24.7250   34.5650 C.2    29  THR29       0.2618
      4  O         -4.2830   24.3940   34.7930 O.2    29  THR29      -0.2717
      5  CB        -1.8090   23.0310   33.1300 C.3    29  THR29       0.1784
      6  OG1       -2.7980   22.0170   33.3060 O.3    29  THR29      -0.2211
      7  CG2       -0.7460   22.8700   34.1840 C.3    29  THR29       0.0376
      8  N         -2.3820   25.3710   35.4570 N.am   30  CYS30      -0.1969
      9  CA        -2.8850   25.6460   36.7930 C.3    30  CYS30       0.1712
     10  C         -2.1880   26.8550   37.4170 C.2    30  CYS30       0.2296
     11  O         -1.2200   27.3880   36.8630 O.2    30  CYS30      -0.2864
     12  CB        -2.6010   24.4320   37.6860 C.3    30  CYS30       0.0983
     13  SG        -3.7230   23.0130   37.5650 S.3    30  CYS30      -0.0798
     14  N         -4.3340   17.6920   42.1430 N.3    45  HIS45      -0.1241
     15  CA        -4.8900   17.3180   40.8290 C.3    45  HIS45       0.1621
     16  C         -4.2590   18.0300   39.6110 C.2    45  HIS45       0.2264
     17  O         -4.6230   17.7540   38.4610 O.2    45  HIS45      -0.2867
     18  CB        -6.4360   17.4240   40.8130 C.3    45  HIS45       0.0745
     19  CG        -6.9660   18.8200   40.5710 C.ar   45  HIS45       0.0817
     20  ND1       -7.5400   19.5770   41.5570 N.ar   45  HIS45      -0.2268
     21  CD2       -7.0310   19.5660   39.4430 C.ar   45  HIS45       0.1154
     22  CE1       -7.9310   20.7380   41.0580 C.ar   45  HIS45       0.1986
     23  NE2       -7.6370   20.7510   39.7810 N.ar   45  HIS45      -0.2212
     24  N         -0.6390   15.5260   38.9140 N.3    48  ASP48      -0.1239
     25  CA        -0.9690   14.1130   39.0190 C.3    48  ASP48       0.1674
     26  C         -0.4780   13.2410   37.8880 C.2    48  ASP48       0.2266
     27  O         -0.5610   12.0130   37.9840 O.2    48  ASP48      -0.2867
     28  CB        -2.4900   13.9480   39.1040 C.3    48  ASP48       0.1410
     29  CG        -2.9250   13.5150   40.4410 C.2    48  ASP48       0.3668
     30  OD1       -2.0360   13.3380   41.3120 O.co2  48  ASP48      -0.2456
     31  OD2       -4.1430   13.3560   40.6200 O.co2  48  ASP48      -0.2456
     32  N         -3.9900   11.8510   49.0680 N.3    83  TRP83      -0.1241
     33  CA        -4.6510   12.2950   47.8410 C.3    83  TRP83       0.1605
     34  C         -4.9740   11.1000   46.9570 C.2    83  TRP83       0.2264
     35  O         -4.1240   10.2640   46.6930 O.2    83  TRP83      -0.2867
     36  CB        -3.7700   13.3090   47.0780 C.3    83  TRP83       0.0550
     37  CG        -4.2220   13.5690   45.6760 C.ar   83  TRP83       0.0003
     38  CD1       -3.5900   13.1910   44.5330 C.ar   83  TRP83       0.0946
     39  CD2       -5.4390   14.2150   45.2680 C.ar   83  TRP83       0.0152
     40  NE1       -4.3370   13.5500   43.4390 N.ar   83  TRP83      -0.2442
     41  CE2       -5.4760   14.1810   43.8580 C.ar   83  TRP83       0.0810
     42  CE3       -6.5090   14.8160   45.9600 C.ar   83  TRP83       0.0012
     43  CZ2       -6.5420   14.7230   43.1220 C.ar   83  TRP83       0.0191
     44  CZ3       -7.5700   15.3560   45.2280 C.ar   83  TRP83       0.0001
     45  CH2       -7.5760   15.3040   43.8270 C.ar   83  TRP83       0.0015
     46  N         -6.1220   10.1360   43.2270 N.3    85  THR85      -0.1203
     47  CA        -6.2590   10.7250   41.8950 C.3    85  THR85       0.1994
     48  C         -7.6800   11.0500   41.4230 C.2    85  THR85       0.2617
     49  O         -7.9600   12.1480   40.9520 O.2    85  THR85      -0.2717
     50  CB        -5.4910    9.9080   40.8530 C.3    85  THR85       0.1784
     51  OG1       -4.0940   10.0150   41.1470 O.3    85  THR85      -0.2211
     52  CG2       -5.7350   10.4510   39.4410 C.3    85  THR85       0.0376
     53  N         -8.5980   10.1230   41.6100 N.am   86  ASP86      -0.1973
     54  CA        -9.9920   10.3380   41.2090 C.3    86  ASP86       0.1709
     55  C        -10.5720   11.5780   41.9740 C.2    86  ASP86       0.2293
     56  O        -10.8000   12.6660   41.4230 O.2    86  ASP86      -0.2864
     57  CB       -10.7780    9.0430   41.6050 C.3    86  ASP86       0.1436
     58  CG       -12.1040    8.8400   40.8410 C.2    86  ASP86       0.3671
     59  OD1      -12.0880    8.8000   39.5750 O.co2  86  ASP86      -0.2456
     60  OD2      -13.1510    8.6520   41.5180 O.co2  86  ASP86      -0.2456
     61  N        -11.6460   14.5490   43.9620 N.3    88  VAL88      -0.1231
     62  CA       -11.5530   15.9440   44.3500 C.3    88  VAL88       0.1692
     63  C        -12.4500   16.1040   45.6050 C.2    88  VAL88       0.2591
     64  O        -12.0800   16.7930   46.5570 O.2    88  VAL88      -0.2718
     65  CB       -11.9330   16.8730   43.1520 C.3    88  VAL88       0.0266
     66  CG1      -13.3600   17.3070   43.1930 C.3    88  VAL88       0.0020
     67  CG2      -10.9690   18.0130   43.0490 C.3    88  VAL88       0.0020
     68  N        -13.5330   15.3250   45.6840 N.am   89  ALA89      -0.1980
     69  CA       -14.4560   15.4000   46.8240 C.3    89  ALA89       0.1597
     70  C        -13.9180   14.8530   48.1520 C.2    89  ALA89       0.2287
     71  O        -14.3110   15.3190   49.2200 O.2    89  ALA89      -0.2864
     72  CB       -15.7830   14.7220   46.4800 C.3    89  ALA89       0.0319
     73  N        -23.4100   22.4020   48.6440 N.3   164  TRP164     -0.1241
     74  CA       -22.6000   21.2650   48.2610 C.3   164  TRP164      0.1605
     75  C        -22.8840   19.9410   48.9900 C.2   164  TRP164      0.2264
     76  O        -22.4590   18.8690   48.5290 O.2   164  TRP164     -0.2867
     77  CB       -21.1200   21.6280   48.3710 C.3   164  TRP164      0.0550
     78  CG       -20.5800   22.3140   47.1500 C.ar  164  TRP164      0.0003
     79  CD1      -20.2000   23.6310   47.0300 C.ar  164  TRP164      0.0946
     80  CD2      -20.3310   21.7090   45.8670 C.ar  164  TRP164      0.0152
     81  NE1      -19.7220   23.8730   45.7530 N.ar  164  TRP164     -0.2442
     82  CE2      -19.7960   22.7140   45.0170 C.ar  164  TRP164      0.0810
     83  CE3      -20.5060   20.4110   45.3510 C.ar  164  TRP164      0.0012
     84  CZ2      -19.4290   22.4610   43.6910 C.ar  164  TRP164      0.0191
     85  CZ3      -20.1430   20.1620   44.0320 C.ar  164  TRP164      0.0001
     86  CH2      -19.6030   21.1850   43.2170 C.ar  164  TRP164      0.0015
     87  N        -20.2850   16.6710   49.9140 N.3   167  THR167     -0.1218
     88  CA       -19.1540   16.8000   49.0010 C.3   167  THR167      0.1862
     89  C        -18.0780   17.6850   49.6310 C.2   167  THR167      0.2287
     90  O        -16.8920   17.4250   49.4860 O.2   167  THR167     -0.2866
     91  CB       -19.5890   17.4500   47.6880 C.3   167  THR167      0.1770
     92  OG1      -20.6840   16.7140   47.1380 O.3   167  THR167     -0.2211
     93  CG2      -18.4440   17.4890   46.6790 C.3   167  THR167      0.0375
     94  N        -12.6410   28.8380   37.5350 N.3   184  CYS184     -0.1221
     95  CA       -13.0040   28.0520   36.3690 C.3   184  CYS184      0.1808
     96  C        -11.7060   27.3780   35.9100 C.2   184  CYS184      0.2601
     97  O        -10.6310   27.6670   36.4480 O.2   184  CYS184     -0.2717
     98  CB       -13.6480   28.9380   35.2800 C.3   184  CYS184      0.0970
     99  SG       -14.7500   28.1110   34.0710 S.3   184  CYS184     -0.0800
    100  N        -11.8250   26.4510   34.9640 N.am  185  GLN185     -0.1965
    101  CA       -10.6950   25.6700   34.4730 C.3   185  GLN185      0.1733
    102  C         -9.4350   26.4610   34.2010 C.2   185  GLN185      0.2616
    103  O         -9.4500   27.4010   33.4110 O.2   185  GLN185     -0.2715
    104  CB       -11.1140   24.8380   33.2570 C.3   185  GLN185      0.0408
    105  CG       -11.8990   23.5610   33.6220 C.3   185  GLN185      0.0908
    106  CD       -13.3570   23.8200   34.0110 C.2   185  GLN185      0.2608
    107  OE1      -13.9660   24.8110   33.5770 O.2   185  GLN185     -0.2717
    108  NE2      -13.9220   22.9300   34.8340 N.am  185  GLN185     -0.0878
    109  N         -8.3380   26.0680   34.8420 N.am  186  GLY186     -0.1955
    110  CA        -7.0890   26.7910   34.6720 C.3   186  GLY186      0.1869
    111  C         -6.7570   27.6110   35.9110 C.2   186  GLY186      0.2309
    112  O         -5.6470   28.1390   36.0130 O.2   186  GLY186     -0.2863
    113  N         -7.3670   26.2490   38.9830 N.3   188  SER188     -0.1217
    114  CA        -7.0020   25.1720   39.9100 C.3   188  SER188      0.1889
    115  C         -5.6010   25.3730   40.5070 C.2   188  SER188      0.2288
    116  O         -4.6730   25.7470   39.7950 O.2   188  SER188     -0.2866
    117  CB        -6.9680   23.8330   39.1390 C.3   188  SER188      0.2089
    118  OG        -8.2430   23.3530   38.9380 O.3   188  SER188     -0.2183
    119  N         -7.3400   26.6490   45.2040 N.3   206  THR206     -0.1203
    120  CA        -8.4940   26.3950   44.3410 C.3   206  THR206      0.1994
    121  C         -8.5950   24.9140   43.9530 C.2   206  THR206      0.2619
    122  O         -7.6580   24.3470   43.3790 O.2   206  THR206     -0.2717
    123  CB        -8.4250   27.3110   43.1170 C.3   206  THR206      0.1784
    124  OG1       -8.2350   28.6640   43.5680 O.3   206  THR206     -0.2211
    125  CG2       -9.7190   27.2270   42.2690 C.3   206  THR206      0.0376
    126  N         -9.7190   24.2870   44.2950 N.am  207  SER207     -0.1937
    127  CA        -9.8990   22.8720   44.0070 C.3   207  SER207      0.2055
    128  C        -10.9510   22.5200   42.9580 C.2   207  SER207      0.2643
    129  O        -10.6150   22.0020   41.8740 O.2   207  SER207     -0.2714
    130  CB       -10.1770   22.1000   45.3020 C.3   207  SER207      0.2130
    131  OG       -10.2180   20.6970   45.0730 O.3   207  SER207     -0.2179
    132  N        -12.2090   22.8150   43.2440 N.am  208  PHE208     -0.1959
    133  CA       -13.2490   22.4340   42.3010 C.3   208  PHE208      0.1771
    134  C        -14.4740   23.3300   42.2600 C.2   208  PHE208      0.2619
    135  O        -14.6980   24.1550   43.1540 O.2   208  PHE208     -0.2715
    136  CB       -13.6880   20.9730   42.5680 C.3   208  PHE208      0.0574
    137  CG       -14.3500   20.7410   43.9220 C.ar  208  PHE208     -0.0200
    138  CD1      -15.7460   20.8590   44.0740 C.ar  208  PHE208     -0.0042
    139  CD2      -13.6020   20.3080   45.0180 C.ar  208  PHE208     -0.0042
    140  CE1      -16.3730   20.5500   45.2890 C.ar  208  PHE208     -0.0003
    141  CE2      -14.2230   19.9960   46.2350 C.ar  208  PHE208     -0.0003
    142  CZ       -15.6220   20.1130   46.3670 C.ar  208  PHE208     -0.0000
    143  N        -15.2490   23.1410   41.2020 N.am  209  VAL209     -0.1963
    144  CA       -16.4980   23.8400   40.9780 C.3   209  VAL209      0.1727
    145  C        -17.4460   22.7650   40.4450 C.2   209  VAL209      0.2617
    146  O        -17.0550   21.6040   40.2890 O.2   209  VAL209     -0.2715
    147  CB       -16.3750   24.9600   39.9100 C.3   209  VAL209      0.0290
    148  CG1      -15.4100   26.0630   40.3920 C.3   209  VAL209      0.0023
    149  CG2      -15.9640   24.3750   38.5440 C.3   209  VAL209      0.0023
    150  N        -18.6810   23.1520   40.1630 N.am  210  SER210     -0.1936
    151  CA       -19.6520   22.2160   39.6260 C.3   210  SER210      0.2055
    152  C        -19.3130   21.8960   38.1740 C.2   210  SER210      0.2642
    153  O        -19.0810   22.7940   37.3700 O.2   210  SER210     -0.2714
    154  CB       -21.0540   22.8090   39.6940 C.3   210  SER210      0.2130
    155  OG       -21.9350   22.0780   38.8610 O.3   210  SER210     -0.2179
    156  N        -19.2580   20.6160   37.8390 N.am  211  ARG211     -0.1977
    157  CA       -18.9840   20.2600   36.4560 C.3   211  ARG211      0.1597
    158  C        -20.1460   20.7120   35.5470 C.2   211  ARG211      0.2287
    159  O        -20.0360   20.6910   34.3160 O.2   211  ARG211     -0.2864
    160  CB       -18.6770   18.7570   36.3120 C.3   211  ARG211      0.0334
    161  CG       -19.7060   17.8430   36.8900 C.3   211  ARG211      0.0492
    162  CD       -19.5180   16.4280   36.3830 C.3   211  ARG211      0.2205
    163  NE       -20.5330   15.5800   36.9780 N.pl3 211  ARG211     -0.0865
    164  CZ       -21.6590   15.1790   36.4040 C.cat 211  ARG211      0.5346
    165  NH1      -21.9650   15.5520   35.1710 N.pl3 211  ARG211      0.1354
    166  NH2      -22.4860   14.4190   37.0930 N.pl3 211  ARG211      0.1354
@<TRIPOS>BOND
     1     1     2    1
     2     5     2    1
     3     5     6    1
     4     5     7    1
     5     2     3    1
     6   104   105    1
     7   104   101    1
     8   103   102    2
     9   107   106    2
    10   105   106    1
    11   106   108   am
    12    99    98    1
    13   102   101    1
    14   102   109   am
    15   159   158    2
    16   101   100    1
    17     3     4    2
    18     3     8   am
    19   110   109    1
    20   110   111    1
    21   100    96   am
    22   165   164    1
    23    98    95    1
    24     8     9    1
    25   158   157    1
    26    96    95    1
    27    96    97    2
    28   111   112    2
    29   160   157    1
    30   160   161    1
    31    95    94    1
    32   162   161    1
    33   162   163    1
    34   164   163    2
    35   164   166    1
    36   157   156    1
    37     9    10    1
    38     9    12    1
    39    11    10    2
    40   153   152    2
    41    13    12    1
    42   156   152   am
    43    26    27    2
    44    26    25    1
    45   152   151    1
    46    17    16    2
    47   149   147    1
    48   155   154    1
    49    24    25    1
    50   118   117    1
    51   113   114    1
    52    25    28    1
    53    28    29    1
    54   117   114    1
    55    52    50    1
    56    21    23   ar
    57    21    19   ar
    58    59    58   ar
    59    16    15    1
    60   151   154    1
    61   151   150    1
    62    23    22   ar
    63   116   115    2
    64   147   148    1
    65   147   144    1
    66   114   115    1
    67   150   145   am
    68   146   145    2
    69    29    31   ar
    70    29    30   ar
    71   145   144    1
    72    19    18    1
    73    19    20   ar
    74    18    15    1
    75    15    14    1
    76    58    60   ar
    77    58    57    1
    78    50    51    1
    79    50    47    1
    80    49    48    2
    81   144   143    1
    82    22    20   ar
    83   143   134   am
    84    54    57    1
    85    54    53    1
    86    54    55    1
    87    48    53   am
    88    48    47    1
    89    56    55    2
    90   129   128    2
    91    47    46    1
    92   134   133    1
    93   134   135    2
    94   125   123    1
    95   133   136    1
    96   133   132    1
    97   136   137    1
    98   128   132   am
    99   128   127    1
   100    67    65    1
   101   123   124    1
   102   123   120    1
   103    43    45   ar
   104    43    41   ar
   105    65    66    1
   106    65    62    1
   107    86    84   ar
   108    86    85   ar
   109   122   121    2
   110    40    41   ar
   111    40    38   ar
   112    84    82   ar
   113    45    44   ar
   114    41    39   ar
   115   137   138   ar
   116   137   139   ar
   117   121   126   am
   118   121   120    1
   119    61    62    1
   120   127   126    1
   121   127   130    1
   122    85    83   ar
   123   138   140   ar
   124   120   119    1
   125    62    63    1
   126    38    37   ar
   127    82    81   ar
   128    82    80   ar
   129   139   141   ar
   130   131   130    1
   131    44    42   ar
   132    39    37   ar
   133    39    42   ar
   134   140   142   ar
   135    83    80   ar
   136    63    68   am
   137    63    64    2
   138    37    36    1
   139    68    69    1
   140    81    79   ar
   141    80    78   ar
   142   141   142   ar
   143    72    69    1
   144    93    91    1
   145    35    34    2
   146    69    70    1
   147    34    33    1
   148    79    78   ar
   149    36    33    1
   150    92    91    1
   151    78    77    1
   152    91    88    1
   153    33    32    1
   154    70    71    2
   155    74    77    1
   156    74    73    1
   157    74    75    1
   158    76    75    2
   159    88    89    1
   160    88    87    1
   161    90    89    2
