@<TRIPOS>MOLECULE
tmp/1eatA00.pdb
 163 157 0 0 0
SMALL
GASTEIGER

@<TRIPOS>ATOM
      1  N         -1.3580   25.4240   32.9080 N.3    29  THR29      -0.1203
      2  CA        -2.3450   24.4230   33.3170 C.3    29  THR29       0.1994
      3  C         -3.0050   24.7030   34.7070 C.2    29  THR29       0.2618
      4  O         -4.1890   24.4120   34.9310 O.2    29  THR29      -0.2717
      5  CB        -1.6780   23.0170   33.2700 C.3    29  THR29       0.1784
      6  OG1       -2.6750   22.0050   33.3450 O.3    29  THR29      -0.2211
      7  CG2       -0.6480   22.8380   34.3800 C.3    29  THR29       0.0376
      8  N         -2.2510   25.3540   35.5940 N.am   30  CYS30      -0.1969
      9  CA        -2.7290   25.6550   36.9370 C.3    30  CYS30       0.1712
     10  C         -2.0600   26.8860   37.5680 C.2    30  CYS30       0.2296
     11  O         -1.0680   27.4120   37.0460 O.2    30  CYS30      -0.2864
     12  CB        -2.4520   24.4430   37.8430 C.3    30  CYS30       0.0983
     13  SG        -3.5500   23.0200   37.6110 S.3    30  CYS30      -0.0798
     14  N         -4.2610   17.6060   42.2200 N.3    45  HIS45      -0.1241
     15  CA        -4.8090   17.2300   40.9170 C.3    45  HIS45       0.1621
     16  C         -4.1610   17.9500   39.7140 C.2    45  HIS45       0.2264
     17  O         -4.5310   17.6750   38.5610 O.2    45  HIS45      -0.2867
     18  CB        -6.3410   17.3590   40.8750 C.3    45  HIS45       0.0745
     19  CG        -6.8470   18.7580   40.6230 C.ar   45  HIS45       0.0817
     20  ND1       -7.4770   19.5050   41.5890 N.ar   45  HIS45      -0.2268
     21  CD2       -6.8590   19.5130   39.4980 C.ar   45  HIS45       0.1154
     22  CE1       -7.8540   20.6640   41.0800 C.ar   45  HIS45       0.1986
     23  NE2       -7.4910   20.6920   39.8080 N.ar   45  HIS45      -0.2212
     24  N         -0.5820   15.5740   39.1940 N.3    48  ASP48      -0.1225
     25  CA        -0.9400   14.1700   39.3370 C.3    48  ASP48       0.1805
     26  C         -0.4220   13.2650   38.2360 C.2    48  ASP48       0.2597
     27  O         -0.5940   12.0490   38.2980 O.2    48  ASP48      -0.2718
     28  CB        -2.4630   14.0770   39.2720 C.3    48  ASP48       0.1424
     29  CG        -3.0340   13.4050   40.4390 C.2    48  ASP48       0.3668
     30  OD1       -2.2440   12.9830   41.3070 O.co2  48  ASP48      -0.2456
     31  OD2       -4.2730   13.3070   40.5000 O.co2  48  ASP48      -0.2456
     32  N          0.0600   13.8930   37.1730 N.am   49  ARG49      -0.1979
     33  CA         0.5360   13.2140   35.9890 C.3    49  ARG49       0.1597
     34  C          2.0310   13.3420   35.8720 C.2    49  ARG49       0.2287
     35  O          2.6070   14.3180   36.3270 O.2    49  ARG49      -0.2864
     36  CB        -0.0840   13.8510   34.7450 C.3    49  ARG49       0.0334
     37  CG        -1.6040   13.9680   34.7450 C.3    49  ARG49       0.0492
     38  CD        -2.1380   15.0550   35.7070 C.3    49  ARG49       0.2205
     39  NE        -1.7950   16.4280   35.3200 N.pl3  49  ARG49      -0.0865
     40  CZ        -2.5430   17.4920   35.6180 C.cat  49  ARG49       0.5346
     41  NH1       -3.6670   17.3360   36.3090 N.pl3  49  ARG49       0.1354
     42  NH2       -2.1900   18.7060   35.2010 N.pl3  49  ARG49       0.1354
     43  N         -6.0750   10.1310   43.4730 N.3    85  THR85      -0.1203
     44  CA        -6.1980   10.6040   42.0890 C.3    85  THR85       0.1994
     45  C         -7.5680   11.0270   41.5700 C.2    85  THR85       0.2617
     46  O         -7.7270   12.1460   41.0850 O.2    85  THR85      -0.2717
     47  CB        -5.5770    9.6300   41.1120 C.3    85  THR85       0.1784
     48  OG1       -4.2200    9.4180   41.4780 O.3    85  THR85      -0.2211
     49  CG2       -5.6240   10.2000   39.6970 C.3    85  THR85       0.0376
     50  N         -8.5570   10.1470   41.6180 N.am   86  ASP86      -0.1973
     51  CA        -9.8830   10.5490   41.1290 C.3    86  ASP86       0.1709
     52  C        -10.4670   11.6920   42.0070 C.2    86  ASP86       0.2293
     53  O        -10.6220   12.8460   41.5730 O.2    86  ASP86      -0.2864
     54  CB       -10.8720    9.3380   41.1140 C.3    86  ASP86       0.1436
     55  CG       -10.6520    8.3730   39.9110 C.2    86  ASP86       0.3671
     56  OD1       -9.8470    7.4140   40.0280 O.co2  86  ASP86      -0.2456
     57  OD2      -11.3120    8.5520   38.8570 O.co2  86  ASP86      -0.2456
     58  N        -11.5840   14.4920   44.1030 N.3    88  VAL88      -0.1231
     59  CA       -11.3590   15.8630   44.4800 C.3    88  VAL88       0.1692
     60  C        -12.2830   16.0650   45.6990 C.2    88  VAL88       0.2591
     61  O        -11.9500   16.7830   46.6320 O.2    88  VAL88      -0.2718
     62  CB       -11.6560   16.8180   43.2880 C.3    88  VAL88       0.0266
     63  CG1      -13.1090   17.2170   43.2250 C.3    88  VAL88       0.0020
     64  CG2      -10.7190   17.9770   43.3060 C.3    88  VAL88       0.0020
     65  N        -13.3790   15.3040   45.7380 N.am   89  ALA89      -0.1980
     66  CA       -14.3410   15.3860   46.8310 C.3    89  ALA89       0.1597
     67  C        -13.8610   14.8040   48.1470 C.2    89  ALA89       0.2287
     68  O        -14.3350   15.1970   49.1840 O.2    89  ALA89      -0.2864
     69  CB       -15.6530   14.7420   46.4390 C.3    89  ALA89       0.0319
     70  N        -23.4060   22.3540   48.6800 N.3   164  TRP164     -0.1241
     71  CA       -22.6270   21.1930   48.3020 C.3   164  TRP164      0.1605
     72  C        -22.8690   19.8960   49.0750 C.2   164  TRP164      0.2264
     73  O        -22.2970   18.8520   48.7260 O.2   164  TRP164     -0.2867
     74  CB       -21.1480   21.5390   48.3380 C.3   164  TRP164      0.0550
     75  CG       -20.6440   22.2570   47.1210 C.ar  164  TRP164      0.0003
     76  CD1      -20.2610   23.5690   47.0380 C.ar  164  TRP164      0.0946
     77  CD2      -20.3450   21.6720   45.8470 C.ar  164  TRP164      0.0152
     78  NE1      -19.7200   23.8290   45.8020 N.ar  164  TRP164     -0.2442
     79  CE2      -19.7620   22.6860   45.0470 C.ar  164  TRP164      0.0810
     80  CE3      -20.5050   20.3870   45.3040 C.ar  164  TRP164      0.0012
     81  CZ2      -19.3320   22.4550   43.7310 C.ar  164  TRP164      0.0191
     82  CZ3      -20.0770   20.1550   43.9980 C.ar  164  TRP164      0.0001
     83  CH2      -19.4950   21.1920   43.2250 C.ar  164  TRP164      0.0015
     84  N        -20.3980   16.6270   49.9370 N.3   167  THR167     -0.1218
     85  CA       -19.2490   16.7470   49.0410 C.3   167  THR167      0.1862
     86  C        -18.1500   17.6240   49.6790 C.2   167  THR167      0.2287
     87  O        -16.9590   17.3980   49.4640 O.2   167  THR167     -0.2866
     88  CB       -19.6740   17.3750   47.6880 C.3   167  THR167      0.1770
     89  OG1      -20.6650   16.5590   47.0570 O.3   167  THR167     -0.2211
     90  CG2      -18.4820   17.5420   46.7620 C.3   167  THR167      0.0375
     91  N        -12.5760   28.7770   37.5030 N.3   184  CYS184     -0.1221
     92  CA       -12.9310   27.9830   36.3360 C.3   184  CYS184      0.1808
     93  C        -11.6290   27.3190   35.8830 C.2   184  CYS184      0.2601
     94  O        -10.5600   27.6700   36.3770 O.2   184  CYS184     -0.2717
     95  CB       -13.5450   28.8820   35.2540 C.3   184  CYS184      0.0970
     96  SG       -14.7060   28.0890   34.0900 S.3   184  CYS184     -0.0800
     97  N        -11.7260   26.3340   34.9980 N.am  185  GLN185     -0.1965
     98  CA       -10.5550   25.5840   34.5340 C.3   185  GLN185      0.1733
     99  C         -9.2990   26.4030   34.2770 C.2   185  GLN185      0.2616
    100  O         -9.3360   27.3750   33.5290 O.2   185  GLN185     -0.2715
    101  CB       -10.9200   24.7300   33.3150 C.3   185  GLN185      0.0408
    102  CG       -11.6150   23.3880   33.6580 C.3   185  GLN185      0.0908
    103  CD       -13.0740   23.5370   34.0890 C.2   185  GLN185      0.2608
    104  OE1      -13.7850   24.4420   33.6440 O.2   185  GLN185     -0.2717
    105  NE2      -13.5270   22.6340   34.9460 N.am  185  GLN185     -0.0878
    106  N         -8.1960   26.0090   34.9060 N.am  186  GLY186     -0.1955
    107  CA        -6.9390   26.7260   34.7690 C.3   186  GLY186      0.1869
    108  C         -6.6250   27.5790   35.9920 C.2   186  GLY186      0.2309
    109  O         -5.5510   28.1700   36.0680 O.2   186  GLY186     -0.2863
    110  N         -7.2810   26.2540   39.0580 N.3   188  SER188     -0.1217
    111  CA        -6.9290   25.1600   39.9720 C.3   188  SER188      0.1889
    112  C         -5.5610   25.3540   40.5940 C.2   188  SER188      0.2288
    113  O         -4.6270   25.7570   39.9140 O.2   188  SER188     -0.2866
    114  CB        -6.8910   23.8290   39.2090 C.3   188  SER188      0.2089
    115  OG        -8.1690   23.3500   39.0160 O.3   188  SER188     -0.2183
    116  N         -7.2860   26.6510   45.2100 N.3   206  THR206     -0.1203
    117  CA        -8.4510   26.3700   44.3800 C.3   206  THR206      0.1994
    118  C         -8.5450   24.8860   43.9780 C.2   206  THR206      0.2619
    119  O         -7.6150   24.3130   43.3840 O.2   206  THR206     -0.2717
    120  CB        -8.4690   27.2960   43.1590 C.3   206  THR206      0.1784
    121  OG1       -8.2360   28.6450   43.5930 O.3   206  THR206     -0.2211
    122  CG2       -9.8090   27.2310   42.4410 C.3   206  THR206      0.0376
    123  N         -9.6700   24.2690   44.3200 N.am  207  SER207     -0.1937
    124  CA        -9.8800   22.8570   44.0410 C.3   207  SER207      0.2055
    125  C        -10.9390   22.5120   42.9890 C.2   207  SER207      0.2643
    126  O        -10.5990   22.0170   41.9150 O.2   207  SER207     -0.2714
    127  CB       -10.1890   22.1170   45.3420 C.3   207  SER207      0.2130
    128  OG       -10.1500   20.7150   45.1520 O.3   207  SER207     -0.2179
    129  N        -12.2070   22.7660   43.2720 N.am  208  PHE208     -0.1959
    130  CA       -13.2230   22.3890   42.3140 C.3   208  PHE208      0.1771
    131  C        -14.4480   23.2840   42.2510 C.2   208  PHE208      0.2619
    132  O        -14.6240   24.1650   43.0870 O.2   208  PHE208     -0.2715
    133  CB       -13.6420   20.9290   42.5530 C.3   208  PHE208      0.0574
    134  CG       -14.2630   20.6520   43.9180 C.ar  208  PHE208     -0.0200
    135  CD1      -15.6380   20.8260   44.1320 C.ar  208  PHE208     -0.0042
    136  CD2      -13.4840   20.1410   44.9670 C.ar  208  PHE208     -0.0042
    137  CE1      -16.2310   20.4910   45.3590 C.ar  208  PHE208     -0.0003
    138  CE2      -14.0630   19.8030   46.1950 C.ar  208  PHE208     -0.0003
    139  CZ       -15.4450   19.9770   46.3920 C.ar  208  PHE208     -0.0000
    140  N        -15.2500   23.0920   41.2060 N.am  209  VAL209     -0.1963
    141  CA       -16.4830   23.8320   41.0070 C.3   209  VAL209      0.1727
    142  C        -17.4560   22.8050   40.4990 C.2   209  VAL209      0.2617
    143  O        -17.1110   21.6370   40.3310 O.2   209  VAL209     -0.2715
    144  CB       -16.3920   24.9380   39.9220 C.3   209  VAL209      0.0290
    145  CG1      -15.3800   26.0070   40.3070 C.3   209  VAL209      0.0023
    146  CG2      -16.0720   24.3250   38.5670 C.3   209  VAL209      0.0023
    147  N        -18.6680   23.2520   40.2150 N.am  210  SER210     -0.1936
    148  CA       -19.6770   22.3540   39.7090 C.3   210  SER210      0.2055
    149  C        -19.3070   21.8060   38.3470 C.2   210  SER210      0.2642
    150  O        -18.8880   22.5290   37.4410 O.2   210  SER210     -0.2714
    151  CB       -21.0250   23.0420   39.6030 C.3   210  SER210      0.2130
    152  OG       -21.9050   22.2050   38.8890 O.3   210  SER210     -0.2179
    153  N        -19.4810   20.5010   38.2150 N.am  211  ARG211     -0.1977
    154  CA       -19.2130   19.8220   36.9680 C.3   211  ARG211      0.1597
    155  C        -20.1800   20.3860   35.9120 C.2   211  ARG211      0.2287
    156  O        -19.8590   20.4370   34.7200 O.2   211  ARG211     -0.2864
    157  CB       -19.4420   18.3210   37.1700 C.3   211  ARG211      0.0334
    158  CG       -18.9790   17.4540   36.0420 C.3   211  ARG211      0.0492
    159  CD       -18.9970   15.9890   36.4270 C.3   211  ARG211      0.2205
    160  NE       -20.2440   15.5680   37.0580 N.pl3 211  ARG211     -0.0865
    161  CZ       -21.3600   15.2360   36.4110 C.cat 211  ARG211      0.5346
    162  NH1      -21.4440   15.2960   35.0840 N.pl3 211  ARG211      0.1354
    163  NH2      -22.3510   14.7120   37.1020 N.pl3 211  ARG211      0.1354
@<TRIPOS>BOND
     1     1     2    1
     2     5     2    1
     3     5     6    1
     4     5     7    1
     5   101   102    1
     6   101    98    1
     7     2     3    1
     8   100    99    2
     9   104   103    2
    10   102   103    1
    11   103   105   am
    12    96    95    1
    13    99    98    1
    14    99   106   am
    15    98    97    1
    16     3     4    2
    17     3     8   am
    18   156   155    2
    19    36    37    1
    20    36    33    1
    21    37    38    1
    22   107   106    1
    23   107   108    1
    24    97    93   am
    25   162   161    1
    26    42    40    1
    27    95    92    1
    28    39    40    2
    29    39    38    1
    30     8     9    1
    31    40    41    1
    32    34    33    1
    33    34    35    2
    34    93    92    1
    35    93    94    2
    36   155   154    1
    37    33    32    1
    38   108   109    2
    39   158   159    1
    40   158   157    1
    41    92    91    1
    42   161   160    2
    43   161   163    1
    44   159   160    1
    45     9    10    1
    46     9    12    1
    47   154   157    1
    48   154   153    1
    49    11    10    2
    50    32    26   am
    51   150   149    2
    52    13    12    1
    53   153   149   am
    54    26    27    2
    55    26    25    1
    56   149   148    1
    57    17    16    2
    58   146   144    1
    59    57    55   ar
    60   152   151    1
    61   115   114    1
    62   110   111    1
    63    24    25    1
    64   114   111    1
    65    28    25    1
    66    28    29    1
    67    21    23   ar
    68    21    19   ar
    69   151   148    1
    70    49    47    1
    71   148   147    1
    72    16    15    1
    73    23    22   ar
    74    55    56   ar
    75    55    54    1
    76   113   112    2
    77   144   145    1
    78   144   141    1
    79   111   112    1
    80   147   142   am
    81   143   142    2
    82    29    31   ar
    83    29    30   ar
    84   142   141    1
    85    19    18    1
    86    19    20   ar
    87    18    15    1
    88    15    14    1
    89   141   140    1
    90    22    20   ar
    91    46    45    2
    92    47    48    1
    93    47    44    1
    94    54    51    1
    95    51    50    1
    96    51    52    1
    97   140   131   am
    98    45    50   am
    99    45    44    1
   100    53    52    2
   101   126   125    2
   102    44    43    1
   103   131   130    1
   104   131   132    2
   105   130   133    1
   106   130   129    1
   107   122   120    1
   108   133   134    1
   109   125   129   am
   110   125   124    1
   111   120   121    1
   112   120   117    1
   113    63    62    1
   114    83    81   ar
   115    83    82   ar
   116    62    64    1
   117    62    59    1
   118   119   118    2
   119    81    79   ar
   120   134   135   ar
   121   134   136   ar
   122   118   123   am
   123   118   117    1
   124    82    80   ar
   125   124   123    1
   126   124   127    1
   127    58    59    1
   128   135   137   ar
   129   117   116    1
   130    59    60    1
   131   136   138   ar
   132    79    78   ar
   133    79    77   ar
   134   128   127    1
   135    80    77   ar
   136   137   139   ar
   137    60    65   am
   138    60    61    2
   139    65    66    1
   140    78    76   ar
   141    77    75   ar
   142   138   139   ar
   143    69    66    1
   144    90    88    1
   145    66    67    1
   146    76    75   ar
   147    89    88    1
   148    75    74    1
   149    88    85    1
   150    67    68    2
   151    71    74    1
   152    71    70    1
   153    71    72    1
   154    73    72    2
   155    85    86    1
   156    85    84    1
   157    87    86    2
