@<TRIPOS>MOLECULE
tmp/1eauA00.pdb
 197 193 0 0 0
SMALL
GASTEIGER

@<TRIPOS>ATOM
      1  N          3.9900   23.4430   31.7450 N.3    20  TYR20      -0.1241
      2  CA         4.6180   22.1850   31.3920 C.3    20  TYR20       0.1605
      3  C          5.0170   22.3180   29.9430 C.2    20  TYR20       0.2264
      4  O          4.4680   23.1470   29.2270 O.2    20  TYR20      -0.2867
      5  CB         3.6580   21.0220   31.5730 C.3    20  TYR20       0.0534
      6  CG         2.4640   21.0880   30.6750 C.ar   20  TYR20      -0.0201
      7  CD1        1.3860   21.9080   30.9830 C.ar   20  TYR20      -0.0009
      8  CD2        2.4050   20.3250   29.5120 C.ar   20  TYR20      -0.0009
      9  CE1        0.2800   21.9730   30.1620 C.ar   20  TYR20       0.0417
     10  CE2        1.3070   20.3800   28.6860 C.ar   20  TYR20       0.0417
     11  CZ         0.2520   21.2090   29.0140 C.ar   20  TYR20       0.1957
     12  OH        -0.8280   21.2940   28.1750 O.3    20  TYR20      -0.2866
     13  N          3.2750   25.4630   28.1420 N.3    27  ALA27      -0.1231
     14  CA         1.9140   25.9590   28.2160 C.3    27  ALA27       0.1694
     15  C          1.4140   26.0570   29.6480 C.2    27  ALA27       0.2592
     16  O          1.6430   25.1500   30.4590 O.2    27  ALA27      -0.2718
     17  CB         0.9850   25.0740   27.4020 C.3    27  ALA27       0.0304
     18  N          0.7740   27.1820   29.9630 N.am   28  HIS28      -0.1962
     19  CA         0.2040   27.4010   31.2880 C.3    28  HIS28       0.1787
     20  C         -0.8590   26.3410   31.5750 C.2    28  HIS28       0.2621
     21  O         -1.7830   26.1240   30.7760 O.2    28  HIS28      -0.2715
     22  CB        -0.4530   28.8000   31.3960 C.3    28  HIS28       0.0785
     23  CG        -1.2580   28.9970   32.6510 C.ar   28  HIS28       0.0821
     24  ND1       -0.7290   29.5250   33.8050 N.ar   28  HIS28      -0.2267
     25  CD2       -2.5500   28.7140   32.9320 C.ar   28  HIS28       0.1154
     26  CE1       -1.6490   29.5620   34.7470 C.ar   28  HIS28       0.1986
     27  NE2       -2.7690   29.0760   34.2430 N.ar   28  HIS28      -0.2212
     28  N         -0.7620   25.7130   32.7370 N.am   29  THR29      -0.1937
     29  CA        -1.7670   24.7290   33.0930 C.3    29  THR29       0.2028
     30  C         -2.4360   24.9960   34.4690 C.2    29  THR29       0.2642
     31  O         -3.6280   24.7120   34.6440 O.2    29  THR29      -0.2714
     32  CB        -1.1770   23.3040   32.9530 C.3    29  THR29       0.1808
     33  OG1       -2.2220   22.3390   33.0380 O.3    29  THR29      -0.2208
     34  CG2       -0.1170   23.0450   34.0110 C.3    29  THR29       0.0379
     35  N         -1.7050   25.6610   35.3740 N.am   30  CYS30      -0.1967
     36  CA        -2.1820   25.9630   36.7200 C.3    30  CYS30       0.1712
     37  C         -1.5080   27.1740   37.3250 C.2    30  CYS30       0.2296
     38  O         -0.5540   27.6940   36.7720 O.2    30  CYS30      -0.2864
     39  CB        -1.8710   24.7870   37.6280 C.3    30  CYS30       0.0983
     40  SG        -3.0260   23.4130   37.4570 S.3    30  CYS30      -0.0798
     41  N         -3.8680   17.9430   41.9020 N.3    45  HIS45      -0.1226
     42  CA        -4.3520   17.5820   40.5650 C.3    45  HIS45       0.1752
     43  C         -3.6610   18.2960   39.4080 C.2    45  HIS45       0.2596
     44  O         -3.8780   17.9450   38.2470 O.2    45  HIS45      -0.2718
     45  CB        -5.8840   17.6810   40.4600 C.3    45  HIS45       0.0759
     46  CG        -6.3970   19.0660   40.2030 C.ar   45  HIS45       0.0818
     47  ND1       -7.1600   19.7600   41.1170 N.ar   45  HIS45      -0.2268
     48  CD2       -6.2590   19.8820   39.1290 C.ar   45  HIS45       0.1154
     49  CE1       -7.4610   20.9480   40.6230 C.ar   45  HIS45       0.1986
     50  NE2       -6.9280   21.0440   39.4180 N.ar   45  HIS45      -0.2212
     51  N         -2.8320   19.2890   39.7150 N.am   46  CYS46      -0.1970
     52  CA        -2.1100   19.9900   38.6770 C.3    46  CYS46       0.1712
     53  C         -0.8730   19.1950   38.2850 C.2    46  CYS46       0.2296
     54  O         -0.4910   19.1640   37.1140 O.2    46  CYS46      -0.2864
     55  CB        -1.6640   21.3600   39.1740 C.3    46  CYS46       0.0983
     56  SG        -3.0080   22.5570   39.2910 S.3    46  CYS46      -0.0798
     57  N         -0.3320   15.7900   38.7420 N.3    48  ASP48      -0.1239
     58  CA        -0.5880   14.3670   38.6580 C.3    48  ASP48       0.1674
     59  C          0.0810   13.7890   37.4200 C.2    48  ASP48       0.2266
     60  O          0.6780   12.7150   37.4810 O.2    48  ASP48      -0.2867
     61  CB        -2.0930   14.0900   38.5920 C.3    48  ASP48       0.1410
     62  CG        -2.6850   13.7260   39.9380 C.2    48  ASP48       0.3668
     63  OD1       -1.9100   13.5030   40.9000 O.co2  48  ASP48      -0.2456
     64  OD2       -3.9200   13.6430   40.0360 O.co2  48  ASP48      -0.2456
     65  N         -3.9390   12.1400   48.8580 N.3    83  TRP83      -0.1241
     66  CA        -4.5910   12.5790   47.6340 C.3    83  TRP83       0.1605
     67  C         -4.9620   11.3700   46.7950 C.2    83  TRP83       0.2264
     68  O         -4.1720   10.4400   46.6520 O.2    83  TRP83      -0.2867
     69  CB        -3.6820   13.5290   46.8370 C.3    83  TRP83       0.0550
     70  CG        -4.1580   13.8240   45.4120 C.ar   83  TRP83       0.0003
     71  CD1       -3.5160   13.4760   44.2520 C.ar   83  TRP83       0.0946
     72  CD2       -5.3660   14.5050   45.0110 C.ar   83  TRP83       0.0152
     73  NE1       -4.2470   13.8880   43.1650 N.ar   83  TRP83      -0.2442
     74  CE2       -5.3810   14.5190   43.5950 C.ar   83  TRP83       0.0810
     75  CE3       -6.4290   15.1040   45.7090 C.ar   83  TRP83       0.0012
     76  CZ2       -6.4210   15.1010   42.8660 C.ar   83  TRP83       0.0191
     77  CZ3       -7.4650   15.6870   44.9800 C.ar   83  TRP83       0.0001
     78  CH2       -7.4520   15.6800   43.5700 C.ar   83  TRP83       0.0015
     79  N         -6.1590   10.6400   43.0170 N.3    85  THR85      -0.1218
     80  CA        -6.3230   11.1130   41.6420 C.3    85  THR85       0.1862
     81  C         -7.7770   11.2860   41.1930 C.2    85  THR85       0.2287
     82  O         -8.2060   12.3620   40.7620 O.2    85  THR85      -0.2866
     83  CB        -5.6350   10.1250   40.7050 C.3    85  THR85       0.1770
     84  OG1       -4.2620    9.9870   41.0970 O.3    85  THR85      -0.2211
     85  CG2       -5.7100   10.5910   39.2700 C.3    85  THR85       0.0375
     86  N        -10.3890   11.8940   42.5770 N.3    87  ASP87      -0.1225
     87  CA       -11.1100   12.3660   43.7370 C.3    87  ASP87       0.1805
     88  C        -10.8650   13.7710   44.2280 C.2    87  ASP87       0.2597
     89  O        -10.3170   13.9640   45.3100 O.2    87  ASP87      -0.2718
     90  CB       -10.8250   11.4130   44.8880 C.3    87  ASP87       0.1424
     91  CG       -12.0660   10.9270   45.5480 C.2    87  ASP87       0.3668
     92  OD1      -13.1350   11.5560   45.3820 O.co2  87  ASP87      -0.2456
     93  OD2      -11.9520    9.9150   46.2560 O.co2  87  ASP87      -0.2456
     94  N        -11.3430   14.7530   43.4820 N.am   88  VAL88      -0.1980
     95  CA       -11.1910   16.1340   43.9000 C.3    88  VAL88       0.1595
     96  C        -12.1010   16.3210   45.1300 C.2    88  VAL88       0.2287
     97  O        -11.7000   16.9430   46.1100 O.2    88  VAL88      -0.2864
     98  CB       -11.5280   17.1050   42.7200 C.3    88  VAL88       0.0276
     99  CG1      -12.9180   17.7440   42.8600 C.3    88  VAL88       0.0022
    100  CG2      -10.4400   18.1280   42.5530 C.3    88  VAL88       0.0022
    101  N         -9.5440   30.3640   32.1610 N.3   134  LEU134     -0.1245
    102  CA       -10.6780   30.7510   31.3290 C.3   134  LEU134      0.1561
    103  C        -11.4630   31.9070   31.9060 C.2   134  LEU134      0.2260
    104  O        -11.7670   31.9360   33.1090 O.2   134  LEU134     -0.2867
    105  CB       -11.6560   29.5990   31.1270 C.3   134  LEU134      0.0270
    106  CG       -11.1540   28.2550   30.6400 C.3   134  LEU134      0.0019
    107  CD1      -12.3220   27.5780   29.9720 C.3   134  LEU134      0.0001
    108  CD2       -9.9710   28.3870   29.6960 C.3   134  LEU134      0.0001
    109  N         -7.9450   31.0920   27.8480 N.3   141  LEU141     -0.1245
    110  CA        -7.1500   31.6040   28.9590 C.3   141  LEU141      0.1561
    111  C         -6.9460   33.1000   28.8390 C.2   141  LEU141      0.2260
    112  O         -6.9460   33.6430   27.7240 O.2   141  LEU141     -0.2867
    113  CB        -5.7870   30.9390   29.0150 C.3   141  LEU141      0.0270
    114  CG        -5.6710   29.4380   29.2570 C.3   141  LEU141      0.0019
    115  CD1       -4.1870   29.1230   29.3420 C.3   141  LEU141      0.0001
    116  CD2       -6.3760   28.9850   30.5180 C.3   141  LEU141      0.0001
    117  N        -11.9590   29.2610   37.0690 N.3   184  CYS184     -0.1221
    118  CA       -12.3440   28.5220   35.8750 C.3   184  CYS184      0.1808
    119  C        -11.0860   27.7960   35.4290 C.2   184  CYS184      0.2601
    120  O         -9.9990   28.1060   35.9070 O.2   184  CYS184     -0.2717
    121  CB       -12.8320   29.4880   34.8100 C.3   184  CYS184      0.0970
    122  SG       -13.9530   28.7720   33.5840 S.3   184  CYS184     -0.0800
    123  N        -11.2240   26.8390   34.5230 N.am  185  GLN185     -0.1965
    124  CA       -10.0790   26.0420   34.0640 C.3   185  GLN185      0.1733
    125  C         -8.8150   26.8450   33.8390 C.2   185  GLN185      0.2617
    126  O         -8.7870   27.7850   33.0520 O.2   185  GLN185     -0.2715
    127  CB       -10.4450   25.2510   32.8100 C.3   185  GLN185      0.0408
    128  CG       -11.3000   23.9910   33.0860 C.3   185  GLN185      0.0908
    129  CD       -12.7610   24.2520   33.4100 C.2   185  GLN185      0.2608
    130  OE1      -13.2850   25.3400   33.1840 O.2   185  GLN185     -0.2717
    131  NE2      -13.4330   23.2400   33.9160 N.am  185  GLN185     -0.0878
    132  N         -7.7560   26.4720   34.5450 N.am  186  GLY186     -0.1940
    133  CA        -6.4930   27.1780   34.4180 C.3   186  GLY186      0.2014
    134  C         -6.1240   27.9540   35.6660 C.2   186  GLY186      0.2639
    135  O         -5.0040   28.4290   35.7590 O.2   186  GLY186     -0.2714
    136  N         -7.0830   28.1520   36.5760 N.am  187  ASP187     -0.1957
    137  CA        -6.8430   28.8640   37.8360 C.3   187  ASP187      0.1840
    138  C         -6.4610   27.8800   38.9670 C.2   187  ASP187      0.2622
    139  O         -6.0280   28.2880   40.0450 O.2   187  ASP187     -0.2715
    140  CB        -8.0800   29.6590   38.2610 C.3   187  ASP187      0.1450
    141  CG        -8.4900   30.7140   37.2450 C.2   187  ASP187      0.3671
    142  OD1       -7.6080   31.3480   36.6410 O.co2 187  ASP187     -0.2456
    143  OD2       -9.7050   30.9250   37.0810 O.co2 187  ASP187     -0.2456
    144  N         -6.6490   26.5870   38.7160 N.am  188  SER188     -0.1950
    145  CA        -6.3220   25.5250   39.6660 C.3   188  SER188      0.1924
    146  C         -4.9660   25.7590   40.2930 C.2   188  SER188      0.2314
    147  O         -4.0190   26.1770   39.6240 O.2   188  SER188     -0.2863
    148  CB        -6.2670   24.1710   38.9460 C.3   188  SER188      0.2116
    149  OG        -7.5360   23.7280   38.6750 O.3   188  SER188     -0.2180
    150  N         -6.9180   26.9250   44.8470 N.3   206  THR206     -0.1203
    151  CA        -8.0680   26.6610   43.9750 C.3   206  THR206      0.1994
    152  C         -8.1550   25.1960   43.5570 C.2   206  THR206      0.2619
    153  O         -7.2050   24.6190   43.0110 O.2   206  THR206     -0.2717
    154  CB        -8.0870   27.6050   42.7530 C.3   206  THR206      0.1784
    155  OG1       -7.8480   28.9500   43.1920 O.3   206  THR206     -0.2211
    156  CG2       -9.4470   27.5560   42.0650 C.3   206  THR206      0.0376
    157  N         -9.3080   24.5990   43.8030 N.am  207  SER207     -0.1937
    158  CA        -9.4770   23.1930   43.5180 C.3   207  SER207      0.2055
    159  C        -10.5030   22.8480   42.4470 C.2   207  SER207      0.2643
    160  O        -10.1330   22.3310   41.3990 O.2   207  SER207     -0.2714
    161  CB        -9.8030   22.4640   44.8370 C.3   207  SER207      0.2130
    162  OG        -9.7270   21.0580   44.7130 O.3   207  SER207     -0.2179
    163  N        -11.7760   23.1530   42.6810 N.am  208  PHE208     -0.1959
    164  CA       -12.7770   22.7830   41.7050 C.3   208  PHE208      0.1771
    165  C        -13.9940   23.6600   41.5780 C.2   208  PHE208      0.2619
    166  O        -14.2600   24.5140   42.4350 O.2   208  PHE208     -0.2715
    167  CB       -13.2150   21.3110   41.9130 C.3   208  PHE208      0.0574
    168  CG       -13.9910   21.0370   43.1930 C.ar  208  PHE208     -0.0200
    169  CD1      -15.3810   21.1630   43.2360 C.ar  208  PHE208     -0.0042
    170  CD2      -13.3470   20.5540   44.3240 C.ar  208  PHE208     -0.0042
    171  CE1      -16.1020   20.7980   44.3870 C.ar  208  PHE208     -0.0003
    172  CE2      -14.0720   20.1910   45.4690 C.ar  208  PHE208     -0.0003
    173  CZ       -15.4390   20.3110   45.4970 C.ar  208  PHE208     -0.0000
    174  N        -14.7110   23.4590   40.4740 N.am  209  VAL209     -0.1963
    175  CA       -15.9530   24.1680   40.1900 C.3   209  VAL209      0.1727
    176  C        -16.9970   23.1140   39.7880 C.2   209  VAL209      0.2617
    177  O        -16.7290   21.9060   39.7790 O.2   209  VAL209     -0.2715
    178  CB       -15.8220   25.2440   39.0340 C.3   209  VAL209      0.0290
    179  CG1      -14.8190   26.3560   39.4170 C.3   209  VAL209      0.0023
    180  CG2      -15.4550   24.5990   37.6880 C.3   209  VAL209      0.0023
    181  N        -18.1910   23.5820   39.4660 N.am  210  SER210     -0.1936
    182  CA       -19.2730   22.7140   39.0690 C.3   210  SER210      0.2055
    183  C        -19.0080   22.1340   37.6890 C.2   210  SER210      0.2642
    184  O        -18.3330   22.7410   36.8630 O.2   210  SER210     -0.2714
    185  CB       -20.5680   23.5080   39.0730 C.3   210  SER210      0.2130
    186  OG       -21.6350   22.7420   38.5820 O.3   210  SER210     -0.2179
    187  N        -19.5440   20.9480   37.4410 N.am  211  ARG211     -0.1977
    188  CA       -19.3800   20.2970   36.1500 C.3   211  ARG211      0.1597
    189  C        -20.2240   21.0170   35.0960 C.2   211  ARG211      0.2287
    190  O        -19.9930   20.8710   33.9020 O.2   211  ARG211     -0.2864
    191  CB       -19.7890   18.8290   36.2370 C.3   211  ARG211      0.0334
    192  CG       -18.9540   18.0080   37.2180 C.3   211  ARG211      0.0492
    193  CD       -18.9240   16.5350   36.8090 C.3   211  ARG211      0.2205
    194  NE       -18.6990   15.6210   37.9320 N.pl3 211  ARG211     -0.0865
    195  CZ       -19.6280   14.7970   38.4170 C.cat 211  ARG211      0.5346
    196  NH1      -20.8520   14.7590   37.8870 N.pl3 211  ARG211      0.1354
    197  NH2      -19.3220   14.0000   39.4320 N.pl3 211  ARG211      0.1354
@<TRIPOS>BOND
     1    17    14    1
     2   112   111    2
     3   109   110    1
     4    13    14    1
     5    12    11    1
     6    14    15    1
     7    10    11   ar
     8    10     8   ar
     9   111   110    1
    10   110   113    1
    11    11     9   ar
    12   113   114    1
    13     4     3    2
    14   114   115    1
    15   114   116    1
    16     8     6   ar
    17    15    18   am
    18    15    16    2
    19   108   106    1
    20     3     2    1
    21    18    19    1
    22   107   106    1
    23     9     7   ar
    24   106   105    1
    25     6     7   ar
    26     6     5    1
    27    21    20    2
    28   105   102    1
    29    19    22    1
    30    19    20    1
    31   102   103    1
    32   102   101    1
    33     2     5    1
    34     2     1    1
    35    22    23    1
    36    20    28   am
    37   103   104    2
    38    23    25   ar
    39    23    24   ar
    40    28    29    1
    41   127   128    1
    42   127   124    1
    43    25    27   ar
    44    32    33    1
    45    32    29    1
    46    32    34    1
    47   126   125    2
    48   128   129    1
    49    29    30    1
    50   130   129    2
    51   129   131   am
    52   122   121    1
    53    24    26   ar
    54   125   124    1
    55   125   132   am
    56   190   189    2
    57   124   123    1
    58    27    26   ar
    59   133   132    1
    60   133   134    1
    61    30    31    2
    62    30    35   am
    63   123   119   am
    64   121   118    1
    65   189   188    1
    66    35    36    1
    67   119   118    1
    68   119   120    2
    69   134   135    2
    70   134   136   am
    71   118   117    1
    72   188   191    1
    73   188   187    1
    74   191   192    1
    75   136   137    1
    76   142   141   ar
    77    36    37    1
    78    36    39    1
    79    38    37    2
    80   193   192    1
    81   193   194    1
    82   184   183    2
    83   143   141   ar
    84    54    53    2
    85   141   140    1
    86    59    60    2
    87    59    58    1
    88   187   183   am
    89    40    39    1
    90    40    56    1
    91   180   178    1
    92   183   182    1
    93   137   140    1
    94   137   138    1
    95   196   195    1
    96   194   195    2
    97    44    43    2
    98    53    52    1
    99   195   197    1
   100   186   185    1
   101    61    58    1
   102    61    62    1
   103    58    57    1
   104   149   148    1
   105    52    55    1
   106    52    51    1
   107   144   138   am
   108   144   145    1
   109   148   145    1
   110   138   139    2
   111   178   179    1
   112   178   175    1
   113   182   185    1
   114   182   181    1
   115    48    50   ar
   116    48    46   ar
   117    55    56    1
   118    85    83    1
   119    43    51   am
   120    43    42    1
   121    50    49   ar
   122   181   176   am
   123   147   146    2
   124   145   146    1
   125   177   176    2
   126   176   175    1
   127    62    64   ar
   128    62    63   ar
   129   175   174    1
   130    46    45    1
   131    46    47   ar
   132    45    42    1
   133   174   165   am
   134    42    41    1
   135    49    47   ar
   136    83    84    1
   137    83    80    1
   138    82    81    2
   139    81    80    1
   140   160   159    2
   141   165   164    1
   142   165   166    2
   143    80    79    1
   144   164   167    1
   145   164   163    1
   146   167   168    1
   147   156   154    1
   148   159   163   am
   149   159   158    1
   150   100    98    1
   151    86    87    1
   152    98    99    1
   153    98    95    1
   154   154   155    1
   155   154   151    1
   156    76    78   ar
   157    76    74   ar
   158   153   152    2
   159    73    74   ar
   160    73    71   ar
   161   168   169   ar
   162   168   170   ar
   163   169   171   ar
   164    94    95    1
   165    94    88   am
   166   158   157    1
   167   158   161    1
   168   152   157   am
   169   152   151    1
   170    78    77   ar
   171    74    72   ar
   172    87    88    1
   173    87    90    1
   174    95    96    1
   175   151   150    1
   176    88    89    2
   177    71    70   ar
   178   170   172   ar
   179   171   173   ar
   180   162   161    1
   181    90    91    1
   182    77    75   ar
   183    72    70   ar
   184    72    75   ar
   185    96    97    2
   186    92    91   ar
   187    70    69    1
   188   172   173   ar
   189    91    93   ar
   190    68    67    2
   191    67    66    1
   192    69    66    1
   193    66    65    1
