@<TRIPOS>MOLECULE
tmp/1eazA00.pdb
 87 81 0 0 0
SMALL
GASTEIGER

@<TRIPOS>ATOM
      1  N         16.9360   21.7830   -0.2180 N.3    11  LYS11      -0.1245
      2  CA        17.1760   20.5840   -1.0430 C.3    11  LYS11       0.1561
      3  C         17.1450   20.9340   -2.5090 C.2    11  LYS11       0.2260
      4  O         16.5170   21.9080   -2.9510 O.2    11  LYS11      -0.2867
      5  CB        16.1250   19.5270   -0.6790 C.3    11  LYS11       0.0271
      6  CG        14.6660   19.8710   -0.9440 C.3    11  LYS11       0.0035
      7  CD        13.7780   18.6990   -1.3070 C.3    11  LYS11       0.0206
      8  CE        14.1050   17.9120   -2.5370 C.3    11  LYS11       0.1093
      9  NZ        13.4380   18.3880   -3.7930 N.3    11  LYS11      -0.1314
     10  N         16.1100   20.6160   -6.3130 N.3    13  GLY13      -0.1210
     11  CA        14.8700   20.2540   -7.0160 C.3    13  GLY13       0.1956
     12  C         15.1720   19.5430   -8.3120 C.2    13  GLY13       0.2612
     13  O         16.2610   19.6840   -8.8790 O.2    13  GLY13      -0.2717
     14  N         14.2360   18.7390   -8.7720 N.am   14  ALA14      -0.1965
     15  CA        14.5190   17.9790   -9.9910 C.3    14  ALA14       0.1728
     16  C         14.2930   18.8090  -11.2660 C.2    14  ALA14       0.2616
     17  O         14.9930   18.5340  -12.2450 O.2    14  ALA14      -0.2715
     18  CB        13.6610   16.7220  -10.0300 C.3    14  ALA14       0.0334
     19  N         13.3650   19.7620  -11.2730 N.am   15  VAL15      -0.1977
     20  CA        12.9430   20.3490  -12.5510 C.3    15  VAL15       0.1596
     21  C         14.0880   21.0870  -13.2390 C.2    15  VAL15       0.2287
     22  O         14.3890   20.9210  -14.4160 O.2    15  VAL15      -0.2864
     23  CB        11.7650   21.3400  -12.3750 C.3    15  VAL15       0.0276
     24  CG1       11.3280   21.9180  -13.7240 C.3    15  VAL15       0.0022
     25  CG2       10.6130   20.6630  -11.6390 C.3    15  VAL15       0.0022
     26  N         15.6840   24.6540   -2.7300 N.3    20  LYS20      -0.1245
     27  CA        14.5260   25.2000   -2.0450 C.3    20  LYS20       0.1561
     28  C         14.4300   24.7670   -0.6000 C.2    20  LYS20       0.2260
     29  O         14.6740   23.6160   -0.2770 O.2    20  LYS20      -0.2867
     30  CB        13.2390   24.7740   -2.7640 C.3    20  LYS20       0.0271
     31  CG        13.1880   25.2880   -4.1900 C.3    20  LYS20       0.0035
     32  CD        12.1730   24.5810   -5.0330 C.3    20  LYS20       0.0206
     33  CE        12.3880   24.8730   -6.5180 C.3    20  LYS20       0.1093
     34  NZ        12.4860   26.3270   -6.7780 N.3    20  LYS20      -0.1314
     35  N         12.7300   23.3850    2.4510 N.3    22  ARG22      -0.1245
     36  CA        11.6070   22.4990    2.7090 C.3    22  ARG22       0.1563
     37  C         11.6980   22.0150    4.1520 C.2    22  ARG22       0.2260
     38  O         12.7690   22.0160    4.7550 O.2    22  ARG22      -0.2867
     39  CB        11.5680   21.2730    1.7760 C.3    22  ARG22       0.0307
     40  CG        11.3920   21.6410    0.2850 C.3    22  ARG22       0.0489
     41  CD        10.0510   22.3100    0.0670 C.3    22  ARG22       0.2205
     42  NE         9.7760   22.6710   -1.3220 N.pl3  22  ARG22      -0.0865
     43  CZ         9.3770   23.8670   -1.7300 C.cat  22  ARG22       0.5346
     44  NH1        9.2300   24.8130   -0.8080 N.pl3  22  ARG22       0.1354
     45  NH2        9.1420   24.0990   -3.0020 N.pl3  22  ARG22       0.1354
     46  N          9.4200   15.2560    3.3000 N.3    33  TYR33      -0.1241
     47  CA         9.5210   16.7150    3.3740 C.3    33  TYR33       0.1605
     48  C          8.2210   17.3370    2.8750 C.2    33  TYR33       0.2264
     49  O          7.4720   16.7330    2.0960 O.2    33  TYR33      -0.2867
     50  CB        10.7580   17.2500    2.6400 C.3    33  TYR33       0.0534
     51  CG        10.9260   16.8250    1.2020 C.ar   33  TYR33      -0.0201
     52  CD1       10.3260   17.5470    0.1480 C.ar   33  TYR33      -0.0009
     53  CD2       11.6670   15.7110    0.8510 C.ar   33  TYR33      -0.0009
     54  CE1       10.4690   17.1640   -1.1800 C.ar   33  TYR33       0.0417
     55  CE2       11.8190   15.3330   -0.4700 C.ar   33  TYR33       0.0417
     56  CZ        11.2240   16.0440   -1.4810 C.ar   33  TYR33       0.1957
     57  OH        11.4100   15.6350   -2.7740 O.3    33  TYR33      -0.2866
     58  N          5.2170   16.5950    0.5090 N.3    43  LEU43      -0.1231
     59  CA         5.5060   16.6030   -0.9260 C.3    43  LEU43       0.1693
     60  C          6.0450   15.2480   -1.3350 C.2    43  LEU43       0.2591
     61  O          5.7660   14.7470   -2.4310 O.2    43  LEU43      -0.2718
     62  CB         6.5460   17.6530   -1.2440 C.3    43  LEU43       0.0284
     63  CG         6.0510   19.0910   -1.0710 C.3    43  LEU43       0.0019
     64  CD1        7.2060   20.0710   -1.1160 C.3    43  LEU43       0.0001
     65  CD2        5.0260   19.4700   -2.1430 C.3    43  LEU43       0.0001
     66  N          6.8460   14.6420   -0.4650 N.am   44  ARG44      -0.1980
     67  CA         7.4170   13.3210   -0.7680 C.3    44  ARG44       0.1597
     68  C          7.6990   12.5740    0.5270 C.2    44  ARG44       0.2287
     69  O          8.1280   13.2200    1.4880 O.2    44  ARG44      -0.2864
     70  CB         8.6800   13.5170   -1.6090 C.3    44  ARG44       0.0334
     71  CG         9.4150   12.2330   -1.9240 C.3    44  ARG44       0.0492
     72  CD        10.6520   12.4820   -2.7620 C.3    44  ARG44       0.2205
     73  NE        10.2460   12.6810   -4.1530 N.pl3  44  ARG44      -0.0865
     74  CZ         9.9940   11.5350   -4.8230 C.cat  44  ARG44       0.5346
     75  NH1       10.1230   10.3820   -4.1640 N.pl3  44  ARG44       0.1354
     76  NH2        9.6180   11.5540   -6.0850 N.pl3  44  ARG44       0.1354
     77  N         16.7290    7.7620   -7.0070 N.3    76  ARG76      -0.1245
     78  CA        17.1090    9.1530   -6.8390 C.3    76  ARG76       0.1563
     79  C         18.0190    9.3460   -5.6350 C.2    76  ARG76       0.2260
     80  O         17.8210    8.8000   -4.5550 O.2    76  ARG76      -0.2867
     81  CB        15.8750   10.0370   -6.6320 C.3    76  ARG76       0.0307
     82  CG        16.2150   11.5330   -6.6060 C.3    76  ARG76       0.0489
     83  CD        14.9460   12.3400   -6.8100 C.3    76  ARG76       0.2205
     84  NE        15.2040   13.7590   -6.5390 N.pl3  76  ARG76      -0.0865
     85  CZ        14.2400   14.6730   -6.5170 C.cat  76  ARG76       0.5346
     86  NH1       12.9700   14.3490   -6.7460 N.pl3  76  ARG76       0.1354
     87  NH2       14.5570   15.9260   -6.2620 N.pl3  76  ARG76       0.1354
@<TRIPOS>BOND
     1    22    21    2
     2    24    23    1
     3    21    20    1
     4    20    23    1
     5    20    19    1
     6    23    25    1
     7    17    16    2
     8    19    16   am
     9    16    15    1
    10    18    15    1
    11    15    14    1
    12    13    12    2
    13    14    12   am
    14    12    11    1
    15    11    10    1
    16    77    78    1
    17    78    81    1
    18    78    79    1
    19    83    82    1
    20    83    84    1
    21    34    33    1
    22    86    85    1
    23    81    82    1
    24    84    85    2
    25    33    32    1
    26    85    87    1
    27    76    74    1
    28    79    80    2
    29    32    31    1
    30    74    75    1
    31    74    73    2
    32    31    30    1
    33    73    72    1
    34     9     8    1
    35    45    43    1
    36     4     3    2
    37    57    56    1
    38    30    27    1
    39    72    71    1
    40    26    27    1
    41     8     7    1
    42     3     2    1
    43    61    60    2
    44    65    63    1
    45    27    28    1
    46    71    70    1
    47    43    42    2
    48    43    44    1
    49    70    67    1
    50    56    54   ar
    51    56    55   ar
    52    60    59    1
    53    60    66   am
    54    42    41    1
    55     7     6    1
    56    62    63    1
    57    62    59    1
    58    54    52   ar
    59    64    63    1
    60     2     5    1
    61     2     1    1
    62     6     5    1
    63    59    58    1
    64    67    66    1
    65    67    68    1
    66    28    29    2
    67    55    53   ar
    68    41    40    1
    69    52    51   ar
    70    40    39    1
    71    68    69    2
    72    53    51   ar
    73    51    50    1
    74    39    36    1
    75    49    48    2
    76    35    36    1
    77    50    47    1
    78    36    37    1
    79    48    47    1
    80    46    47    1
    81    37    38    2
