@<TRIPOS>MOLECULE
tmp/1eb1B00.pdb
 147 138 0 0 0
SMALL
GASTEIGER

@<TRIPOS>ATOM
      1  N         16.9130    0.8760   25.3250 N.3    17  MET17      -0.1245
      2  CA        16.7870   -0.5440   25.6570 C.3    17  MET17       0.1570
      3  C         15.3930   -0.7550   26.2620 C.2    17  MET17       0.2261
      4  O         14.9840   -0.0240   27.1780 O.2    17  MET17      -0.2867
      5  CB        17.8620   -0.9570   26.6750 C.3    17  MET17       0.0387
      6  CG        17.8170   -2.3990   27.0460 C.3    17  MET17       0.0595
      7  SD        18.9330   -2.7830   28.4260 S.3    17  MET17      -0.1393
      8  CE        20.4680   -2.8430   27.6120 C.3    17  MET17       0.0692
      9  N         13.3440   -2.9460   28.4960 N.3    19  PHE19      -0.1241
     10  CA        13.6760   -3.8520   29.5920 C.3    19  PHE19       0.1605
     11  C         12.4430   -4.3750   30.3470 C.2    19  PHE19       0.2264
     12  O         11.5940   -3.5990   30.7690 O.2    19  PHE19      -0.2867
     13  CB        14.5850   -3.0670   30.5550 C.3    19  PHE19       0.0534
     14  CG        15.5000   -3.9170   31.4020 C.ar   19  PHE19      -0.0203
     15  CD1       16.5650   -4.6050   30.8280 C.ar   19  PHE19      -0.0042
     16  CD2       15.3310   -3.9660   32.7870 C.ar   19  PHE19      -0.0042
     17  CE1       17.4550   -5.3250   31.6120 C.ar   19  PHE19      -0.0003
     18  CE2       16.2130   -4.6810   33.5940 C.ar   19  PHE19      -0.0003
     19  CZ        17.2860   -5.3670   33.0040 C.ar   19  PHE19      -0.0000
     20  N         10.6650   -5.5590   33.4790 N.3    21  LYS21      -0.1245
     21  CA        10.8750   -5.3540   34.9140 C.3    21  LYS21       0.1561
     22  C         11.1830   -6.6540   35.6530 C.2    21  LYS21       0.2260
     23  O         12.2080   -6.7570   36.3400 O.2    21  LYS21      -0.2867
     24  CB         9.6460   -4.6950   35.5580 C.3    21  LYS21       0.0271
     25  CG         9.4770   -3.2160   35.2380 C.3    21  LYS21       0.0035
     26  CD         8.3230   -2.5930   36.0280 C.3    21  LYS21       0.0206
     27  CE         8.1300   -1.1230   35.6710 C.3    21  LYS21       0.1093
     28  NZ         6.9650   -0.4590   36.3470 N.3    21  LYS21      -0.1314
     29  N         14.0590   -9.3860   35.2150 N.3    24  GLN24      -0.1231
     30  CA        14.8260   -8.3790   34.4870 C.3    24  GLN24       0.1698
     31  C         15.5070   -8.9900   33.2710 C.2    24  GLN24       0.2592
     32  O         16.3460   -9.8880   33.4050 O.2    24  GLN24      -0.2718
     33  CB        15.8870   -7.7390   35.3910 C.3    24  GLN24       0.0381
     34  CG        15.3450   -6.7100   36.3830 C.3    24  GLN24       0.0905
     35  CD        16.4590   -5.9920   37.1310 C.2    24  GLN24       0.2608
     36  OE1       17.3850   -6.6330   37.6290 O.2    24  GLN24      -0.2717
     37  NE2       16.3730   -4.6600   37.2190 N.am   24  GLN24      -0.0878
     38  N         15.1350   -8.5210   32.0810 N.am   25  GLU25      -0.1966
     39  CA        15.7460   -9.0180   30.8600 C.3    25  GLU25       0.1733
     40  C         15.5910   -8.0410   29.7020 C.2    25  GLU25       0.2616
     41  O         14.6840   -7.2210   29.6870 O.2    25  GLU25      -0.2715
     42  CB        15.1470  -10.3660   30.4650 C.3    25  GLU25       0.0429
     43  CG        13.6360  -10.3810   30.4190 C.3    25  GLU25       0.1163
     44  CD        13.0850  -11.6930   29.8850 C.2    25  GLU25       0.3649
     45  OE1       11.8660  -11.9280   30.0350 O.co2  25  GLU25      -0.2457
     46  OE2       13.8730  -12.4830   29.3070 O.co2  25  GLU25      -0.2457
     47  N         16.5080   -8.1390   28.7500 N.am   26  LEU26      -0.1977
     48  CA        16.4920   -7.3050   27.5540 C.3    26  LEU26       0.1596
     49  C         15.4260   -7.8830   26.6310 C.2    26  LEU26       0.2287
     50  O         15.4970   -9.0550   26.2430 O.2    26  LEU26      -0.2864
     51  CB        17.8430   -7.3730   26.8410 C.3    26  LEU26       0.0297
     52  CG        17.8940   -6.8390   25.4040 C.3    26  LEU26       0.0022
     53  CD1       17.8140   -5.3470   25.4470 C.3    26  LEU26       0.0001
     54  CD2       19.1930   -7.2700   24.7090 C.3    26  LEU26       0.0001
     55  N         10.0770   -0.9980   31.2630 N.3    60  LEU60      -0.1245
     56  CA        10.9150    0.1530   31.5980 C.3    60  LEU60       0.1561
     57  C         11.8160    0.3730   30.3770 C.2    60  LEU60       0.2260
     58  O         12.1430   -0.5850   29.6570 O.2    60  LEU60      -0.2867
     59  CB        11.8820   -0.1540   32.7580 C.3    60  LEU60       0.0270
     60  CG        11.6310   -0.0540   34.2600 C.3    60  LEU60       0.0019
     61  CD1       12.8280   -0.6010   35.0030 C.3    60  LEU60       0.0001
     62  CD2       11.4200    1.3920   34.6480 C.3    60  LEU60       0.0001
     63  N         15.5570    2.0390   29.2220 N.3    62  ARG62      -0.1245
     64  CA        16.8070    2.5750   29.7250 C.3    62  ARG62       0.1563
     65  C         17.4520    3.2940   28.5340 C.2    62  ARG62       0.2260
     66  O         17.6940    2.6940   27.4710 O.2    62  ARG62      -0.2867
     67  CB        17.6830    1.4310   30.2390 C.3    62  ARG62       0.0307
     68  CG        16.9410    0.5480   31.2690 C.3    62  ARG62       0.0489
     69  CD        17.7610   -0.6520   31.6820 C.3    62  ARG62       0.2205
     70  NE        18.9500   -0.3060   32.4590 N.pl3  62  ARG62      -0.0865
     71  CZ        19.7280   -1.2090   33.0540 C.cat  62  ARG62       0.5346
     72  NH1       19.4360   -2.5110   32.9630 N.pl3  62  ARG62       0.1354
     73  NH2       20.7940   -0.8180   33.7280 N.pl3  62  ARG62       0.1354
     74  N         25.7740   -3.4090   28.3830 N.3    68  ARG68      -0.1231
     75  CA        24.5220   -4.1550   28.3300 C.3    68  ARG68       0.1694
     76  C         23.9770   -4.4720   29.7200 C.2    68  ARG68       0.2593
     77  O         22.8590   -4.0890   30.0500 O.2    68  ARG68      -0.2718
     78  CB        24.7160   -5.4580   27.5590 C.3    68  ARG68       0.0321
     79  CG        23.4750   -6.3980   27.5180 C.3    68  ARG68       0.0489
     80  CD        23.7230   -7.6500   26.6600 C.3    68  ARG68       0.2205
     81  NE        24.6840   -8.6030   27.2350 N.pl3  68  ARG68      -0.0865
     82  CZ        24.4190   -9.4460   28.2390 C.cat  68  ARG68       0.5346
     83  NH1       23.2160   -9.4770   28.8060 N.pl3  68  ARG68       0.1354
     84  NH2       25.3640  -10.2760   28.6710 N.pl3  68  ARG68       0.1354
     85  N         24.7910   -5.1250   30.5470 N.am   69  THR69      -0.1939
     86  CA        24.3410   -5.5610   31.8730 C.3    69  THR69       0.2028
     87  C         24.4720   -4.6050   33.0380 C.2    69  THR69       0.2642
     88  O         23.6930   -4.6590   33.9770 O.2    69  THR69      -0.2714
     89  CB        25.0630   -6.8400   32.2750 C.3    69  THR69       0.1808
     90  OG1       26.4620   -6.5610   32.4050 O.3    69  THR69      -0.2208
     91  CG2       24.8670   -7.9270   31.2120 C.3    69  THR69       0.0379
     92  N         25.4410   -3.7040   32.9840 N.am   70  ARG70      -0.1963
     93  CA        25.6530   -2.8050   34.1120 C.3    70  ARG70       0.1729
     94  C         24.6860   -1.6450   34.2650 C.2    70  ARG70       0.2616
     95  O         24.1190   -1.1650   33.2890 O.2    70  ARG70      -0.2715
     96  CB        27.0900   -2.2730   34.0570 C.3    70  ARG70       0.0348
     97  CG        28.0950   -3.3910   33.8230 C.3    70  ARG70       0.0492
     98  CD        27.8160   -4.5710   34.7500 C.3    70  ARG70       0.2205
     99  NE        28.3200   -5.8110   34.1870 N.pl3  70  ARG70      -0.0865
    100  CZ        28.0280   -7.0190   34.6590 C.cat  70  ARG70       0.5346
    101  NH1       27.2300   -7.1490   35.7100 N.pl3  70  ARG70       0.1354
    102  NH2       28.5260   -8.1000   34.0730 N.pl3  70  ARG70       0.1354
    103  N         24.4660   -1.2210   35.5110 N.am   71  TYR71      -0.1974
    104  CA        23.6340   -0.0550   35.7490 C.3    71  TYR71       0.1639
    105  C         24.6730    1.0630   35.6160 C.2    71  TYR71       0.2290
    106  O         25.6520    1.1130   36.3850 O.2    71  TYR71      -0.2864
    107  CB        23.0370   -0.0390   37.1610 C.3    71  TYR71       0.0560
    108  CG        22.3970    1.2910   37.4590 C.ar   71  TYR71      -0.0198
    109  CD1       21.3080    1.7360   36.7200 C.ar   71  TYR71      -0.0009
    110  CD2       22.9630    2.1720   38.3910 C.ar   71  TYR71      -0.0009
    111  CE1       20.7960    3.0300   36.8840 C.ar   71  TYR71       0.0417
    112  CE2       22.4640    3.4550   38.5640 C.ar   71  TYR71       0.0417
    113  CZ        21.3840    3.8860   37.8100 C.ar   71  TYR71       0.1957
    114  OH        20.9050    5.1700   37.9590 O.3    71  TYR71      -0.2866
    115  N         16.3320    6.1300   33.4360 N.3    78  ILE78      -0.1245
    116  CA        15.2140    5.1980   33.3450 C.3    78  ILE78       0.1561
    117  C         13.9350    6.0100   33.1110 C.2    78  ILE78       0.2260
    118  O         13.6980    7.0370   33.7610 O.2    78  ILE78      -0.2867
    119  CB        15.0370    4.3990   34.6580 C.3    78  ILE78       0.0252
    120  CG1       16.3650    3.7560   35.0860 C.3    78  ILE78       0.0019
    121  CG2       13.9420    3.3470   34.4860 C.3    78  ILE78       0.0019
    122  CD1       16.8860    2.6750   34.2000 C.3    78  ILE78       0.0001
    123  N          9.5900    5.5890   32.3440 N.3    80  MET80      -0.1245
    124  CA         8.4370    4.7190   32.4710 C.3    80  MET80       0.1570
    125  C          7.4840    5.0050   31.3410 C.2    80  MET80       0.2261
    126  O          7.4760    6.1100   30.7790 O.2    80  MET80      -0.2867
    127  CB         7.7440    4.9560   33.8190 C.3    80  MET80       0.0387
    128  CG         8.6130    4.6020   35.0040 C.3    80  MET80       0.0595
    129  SD         8.8670    2.8390   35.2270 S.3    80  MET80      -0.1393
    130  CE         7.6330    2.5160   36.5380 C.3    80  MET80       0.0692
    131  N         27.5160  -15.6050   27.8760 N.3   151  ASN151     -0.1240
    132  CA        28.8200  -15.1290   28.3230 C.3   151  ASN151      0.1653
    133  C         29.6830  -16.3050   28.7690 C.2   151  ASN151      0.2266
    134  O         29.9580  -16.4770   29.9570 O.2   151  ASN151     -0.2867
    135  CB        28.6540  -14.1350   29.4760 C.3   151  ASN151      0.1155
    136  CG        29.9590  -13.4590   29.8560 C.2   151  ASN151      0.2627
    137  OD1       30.9200  -14.1160   30.2560 O.2   151  ASN151     -0.2716
    138  ND2       29.9970  -12.1370   29.7320 N.am  151  ASN151     -0.0877
    139  N         26.5750  -13.2100   24.1160 N.3   156  GLN156     -0.1245
    140  CA        26.0370  -11.8620   24.2360 C.3   156  GLN156      0.1566
    141  C         27.1710  -10.8580   24.4180 C.2   156  GLN156      0.2260
    142  O         28.2430  -11.2060   24.9250 O.2   156  GLN156     -0.2867
    143  CB        25.0490  -11.8100   25.3880 C.3   156  GLN156      0.0367
    144  CG        23.9240  -12.8280   25.1980 C.3   156  GLN156      0.0905
    145  CD        22.8110  -12.6900   26.2240 C.2   156  GLN156      0.2608
    146  OE1       23.0250  -12.8900   27.4220 O.2   156  GLN156     -0.2717
    147  NE2       21.6140  -12.3460   25.7560 N.am  156  GLN156     -0.0878
@<TRIPOS>BOND
     1   139   140    1
     2   140   141    1
     3   140   143    1
     4   141   142    2
     5    54    52    1
     6   144   143    1
     7   144   145    1
     8     1     2    1
     9    52    53    1
    10    52    51    1
    11     2     3    1
    12     2     5    1
    13   147   145   am
    14   145   146    2
    15    50    49    2
    16     3     4    2
    17    49    48    1
    18    80    81    1
    19    80    79    1
    20     5     6    1
    21    51    48    1
    22     6     7    1
    23    81    82    2
    24    66    65    2
    25    79    78    1
    26    48    47    1
    27    78    75    1
    28     8     7    1
    29   131   132    1
    30    82    84    1
    31    82    83    1
    32   132   133    1
    33   132   135    1
    34    75    74    1
    35    75    76    1
    36     9    10    1
    37    65    64    1
    38    47    40   am
    39   133   134    2
    40    63    64    1
    41    46    44   ar
    42   135   136    1
    43    10    11    1
    44    10    13    1
    45    58    57    2
    46    41    40    2
    47    40    39    1
    48    76    77    2
    49    76    85   am
    50    64    67    1
    51   138   136   am
    52   136   137    2
    53    44    45   ar
    54    44    43    1
    55    67    68    1
    56    11    12    2
    57    57    56    1
    58    43    42    1
    59    42    39    1
    60    85    86    1
    61    13    14    1
    62   126   125    2
    63    15    14   ar
    64    15    17   ar
    65    39    38    1
    66    91    89    1
    67    55    56    1
    68    68    69    1
    69   125   124    1
    70    14    16   ar
    71    56    59    1
    72    17    19   ar
    73    69    70    1
    74    86    89    1
    75    86    87    1
    76    38    31   am
    77    89    90    1
    78   123   124    1
    79    70    71    2
    80   124   127    1
    81    59    60    1
    82    16    18   ar
    83    72    71    1
    84    92    87   am
    85    92    93    1
    86    19    18   ar
    87    87    88    2
    88    71    73    1
    89   117   116    1
    90   117   118    2
    91    31    32    2
    92    31    30    1
    93    95    94    2
    94   116   115    1
    95   116   119    1
    96    20    21    1
    97   127   128    1
    98    97    96    1
    99    97    98    1
   100    96    93    1
   101   102   100    1
   102    93    94    1
   103    99   100    2
   104    99    98    1
   105   122   120    1
   106    60    62    1
   107    60    61    1
   108    94   103   am
   109   121   119    1
   110    30    29    1
   111    30    33    1
   112   119   120    1
   113   100   101    1
   114    21    24    1
   115    21    22    1
   116   128   129    1
   117   129   130    1
   118    25    24    1
   119    25    26    1
   120    33    34    1
   121   103   104    1
   122   105   104    1
   123   105   106    2
   124    22    23    2
   125    27    26    1
   126    27    28    1
   127   104   107    1
   128    34    35    1
   129   109   111   ar
   130   109   108   ar
   131   111   113   ar
   132    35    37   am
   133    35    36    2
   134   107   108    1
   135   108   110   ar
   136   113   114    1
   137   113   112   ar
   138   110   112   ar
