@<TRIPOS>MOLECULE
tmp/1eb2A00.pdb
 183 180 0 0 0
SMALL
GASTEIGER

@<TRIPOS>ATOM
      1  N         21.9890   -7.7200   20.4230 N.3    40  HIS40      -0.1241
      2  CA        20.8280   -7.7020   19.5300 C.3    40  HIS40       0.1621
      3  C         20.7330   -6.3980   18.7630 C.2    40  HIS40       0.2264
      4  O         19.9120   -6.3390   17.8330 O.2    40  HIS40      -0.2867
      5  CB        19.4980   -8.0410   20.1670 C.3    40  HIS40       0.0745
      6  CG        18.8180   -6.9230   20.8940 C.ar   40  HIS40       0.0817
      7  ND1       18.9200   -6.8230   22.2560 N.ar   40  HIS40      -0.2268
      8  CD2       18.0100   -5.9090   20.4640 C.ar   40  HIS40       0.1154
      9  CE1       18.2390   -5.7580   22.6740 C.ar   40  HIS40       0.1986
     10  NE2       17.6710   -5.2080   21.6030 N.ar   40  HIS40      -0.2212
     11  N         20.6350  -15.4930   20.2790 N.3    78  SER78      -0.1202
     12  CA        19.5360  -14.6240   19.9070 C.3    78  SER78       0.2020
     13  C         18.1530  -15.1560   20.2750 C.2    78  SER78       0.2619
     14  O         17.1930  -14.4030   20.1730 O.2    78  SER78      -0.2717
     15  CB        19.5300  -14.3280   18.4090 C.3    78  SER78       0.2103
     16  OG        19.3910  -15.5210   17.6630 O.3    78  SER78      -0.2182
     17  N         18.0490  -16.4330   20.5830 N.am   79  ASN79      -0.1960
     18  CA        16.7740  -17.0440   20.9180 C.3    79  ASN79       0.1819
     19  C         16.4560  -16.7000   22.3750 C.2    79  ASN79       0.2622
     20  O         15.3050  -16.4680   22.7030 O.2    79  ASN79      -0.2715
     21  CB        16.9020  -18.5780   20.8300 C.3    79  ASN79       0.1195
     22  CG        17.3980  -19.0730   19.4890 C.2    79  ASN79       0.2630
     23  OD1       18.5080  -19.6270   19.3890 O.2    79  ASN79      -0.2716
     24  ND2       16.5760  -18.8880   18.4560 N.am   79  ASN79      -0.0877
     25  N         17.4500  -16.6970   23.2490 N.am   80  THR80      -0.1937
     26  CA        17.2750  -16.4580   24.6580 C.3    80  THR80       0.2028
     27  C         17.7120  -15.0760   25.1180 C.2    80  THR80       0.2642
     28  O         17.3600  -14.6910   26.2350 O.2    80  THR80      -0.2714
     29  CB        18.0890  -17.4740   25.5000 C.3    80  THR80       0.1808
     30  OG1       19.4740  -17.3690   25.1770 O.3    80  THR80      -0.2208
     31  CG2       17.5560  -18.8970   25.2530 C.3    80  THR80       0.0379
     32  N         18.5420  -14.3890   24.3490 N.am   81  LEU81      -0.1977
     33  CA        19.1140  -13.1060   24.7390 C.3    81  LEU81       0.1596
     34  C         20.1370  -13.2720   25.8330 C.2    81  LEU81       0.2287
     35  O         20.6320  -12.3070   26.3880 O.2    81  LEU81      -0.2864
     36  CB        18.0550  -12.0220   25.0630 C.3    81  LEU81       0.0297
     37  CG        17.2260  -11.7270   23.7910 C.3    81  LEU81       0.0022
     38  CD1       16.1490  -10.6920   24.0640 C.3    81  LEU81       0.0001
     39  CD2       18.1370  -11.2760   22.6450 C.3    81  LEU81       0.0001
     40  N         10.7140    4.3710   22.5460 N.3   123  ASN123     -0.1240
     41  CA         9.2770    4.5770   22.6040 C.3   123  ASN123      0.1653
     42  C          8.8180    5.0690   23.9650 C.2   123  ASN123      0.2266
     43  O          9.2370    4.4660   24.9570 O.2   123  ASN123     -0.2867
     44  CB         8.5600    3.2480   22.2930 C.3   123  ASN123      0.1155
     45  CG         7.0710    3.3630   22.0220 C.2   123  ASN123      0.2627
     46  OD1        6.4790    4.4370   22.1200 O.2   123  ASN123     -0.2716
     47  ND2        6.4180    2.2620   21.6600 N.am  123  ASN123     -0.0877
     48  N          3.2850    2.8450   26.3290 N.3   126  SER126     -0.1217
     49  CA         3.1010    1.4360   26.6170 C.3   126  SER126      0.1889
     50  C          2.1150    0.8180   25.6330 C.2   126  SER126      0.2288
     51  O          2.1500   -0.3800   25.3910 O.2   126  SER126     -0.2866
     52  CB         2.6280    1.1440   28.0520 C.3   126  SER126      0.2089
     53  OG         1.5340    1.9910   28.3610 O.3   126  SER126     -0.2183
     54  N         13.3060  -17.9090   31.8840 N.3   155  GLN155     -0.1245
     55  CA        13.8890  -17.0320   30.8710 C.3   155  GLN155      0.1566
     56  C         14.9860  -16.1650   31.4620 C.2   155  GLN155      0.2260
     57  O         15.6810  -15.4960   30.6880 O.2   155  GLN155     -0.2867
     58  CB        12.8100  -16.1540   30.2730 C.3   155  GLN155      0.0367
     59  CG        11.7190  -16.8230   29.4670 C.3   155  GLN155      0.0905
     60  CD        10.9220  -15.7640   28.7290 C.2   155  GLN155      0.2608
     61  OE1       10.0900  -15.1080   29.3270 O.2   155  GLN155     -0.2717
     62  NE2       11.1790  -15.5450   27.4240 N.am  155  GLN155     -0.0878
     63  N          9.1550    2.1190   32.4900 N.3   171  ASP171     -0.1225
     64  CA        10.0580    1.0870   31.9920 C.3   171  ASP171      0.1805
     65  C         10.8600    1.6350   30.7970 C.2   171  ASP171      0.2598
     66  O         10.5230    2.6850   30.2510 O.2   171  ASP171     -0.2718
     67  CB         9.1370   -0.0380   31.4710 C.3   171  ASP171      0.1424
     68  CG         9.7860   -1.3660   31.2110 C.2   171  ASP171      0.3668
     69  OD1       11.0110   -1.5130   31.4300 O.co2 171  ASP171     -0.2456
     70  OD2        9.0780   -2.2860   30.7440 O.co2 171  ASP171     -0.2456
     71  N         11.8080    0.8310   30.3570 N.am  172  SER172     -0.1938
     72  CA        12.5240    1.1400   29.1320 C.3   172  SER172      0.2055
     73  C         11.6810    0.4760   28.0570 C.2   172  SER172      0.2643
     74  O         10.6400   -0.1310   28.3560 O.2   172  SER172     -0.2714
     75  CB        13.9930    0.7140   29.1540 C.3   172  SER172      0.2130
     76  OG        14.0460   -0.6790   29.3920 O.3   172  SER172     -0.2179
     77  N         12.0160    0.6540   26.7870 N.am  173  CYS173     -0.1953
     78  CA        11.1990    0.1130   25.6910 C.3   173  CYS173      0.1843
     79  C         12.0180    0.0950   24.4090 C.2   173  CYS173      0.2625
     80  O         13.2300    0.3750   24.3220 O.2   173  CYS173     -0.2714
     81  CB         9.9480    0.9900   25.5860 C.3   173  CYS173      0.0997
     82  SG         8.5440    0.3680   24.5840 S.3   173  CYS173     -0.0797
     83  N         11.3870   -0.3220   23.3240 N.am  174  GLN174     -0.1977
     84  CA        12.0390   -0.4200   22.0200 C.3   174  GLN174      0.1601
     85  C         12.7470    0.8660   21.6460 C.2   174  GLN174      0.2287
     86  O         12.1140    1.9050   21.8370 O.2   174  GLN174     -0.2864
     87  CB        10.9870   -0.6140   20.9000 C.3   174  GLN174      0.0394
     88  CG        11.1100   -2.1050   20.5040 C.3   174  GLN174      0.0908
     89  CD         9.7110   -2.6390   20.8030 C.2   174  GLN174      0.2608
     90  OE1        9.0790   -3.1720   19.8880 O.2   174  GLN174     -0.2717
     91  NE2        9.3370   -2.3730   22.0510 N.am  174  GLN174     -0.0878
     92  N         16.9060   -0.0390   23.7010 N.3   177  SER177     -0.1217
     93  CA        17.8010   -1.1870   23.6340 C.3   177  SER177      0.1889
     94  C         19.2600   -0.8440   23.3880 C.2   177  SER177      0.2288
     95  O         19.5920   -0.0020   22.5450 O.2   177  SER177     -0.2866
     96  CB        17.4360   -1.9510   22.3060 C.3   177  SER177      0.2089
     97  OG        16.2020   -2.5520   22.5490 O.3   177  SER177     -0.2183
     98  N         20.1150   -2.1110   28.4480 N.3   191  VAL191     -0.1231
     99  CA        18.6930   -2.3760   28.1190 C.3   191  VAL191      0.1692
    100  C         18.6500   -3.5630   27.1300 C.2   191  VAL191      0.2593
    101  O         19.2130   -3.4840   26.0290 O.2   191  VAL191     -0.2718
    102  CB        18.0540   -1.1400   27.4840 C.3   191  VAL191      0.0266
    103  CG1       16.5950   -1.4590   27.1480 C.3   191  VAL191      0.0020
    104  CG2       18.1550    0.0910   28.3750 C.3   191  VAL191      0.0020
    105  N         17.9650   -4.6320   27.5070 N.am  192  SER192     -0.1938
    106  CA        17.9880   -5.8580   26.7060 C.3   192  SER192      0.2055
    107  C         16.6110   -6.2660   26.2570 C.2   192  SER192      0.2643
    108  O         16.3600   -6.2650   25.0330 O.2   192  SER192     -0.2714
    109  CB        18.6940   -6.9520   27.5550 C.3   192  SER192      0.2130
    110  OG        18.8510   -8.1490   26.7760 O.3   192  SER192     -0.2179
    111  N         15.6850   -6.5810   27.2020 N.am  193  TRP193     -0.1959
    112  CA        14.3550   -7.0140   26.6730 C.3   193  TRP193      0.1771
    113  C         13.2800   -6.9320   27.7530 C.2   193  TRP193      0.2620
    114  O         13.5470   -6.5740   28.9030 O.2   193  TRP193     -0.2715
    115  CB        14.4880   -8.4440   26.1510 C.3   193  TRP193      0.0590
    116  CG        14.8730   -9.4920   27.1480 C.ar  193  TRP193      0.0006
    117  CD1       16.1270   -9.8600   27.5250 C.ar  193  TRP193      0.0946
    118  CD2       13.9780  -10.3620   27.8790 C.ar  193  TRP193      0.0152
    119  NE1       16.0660  -10.8900   28.4360 N.ar  193  TRP193     -0.2442
    120  CE2       14.7510  -11.2170   28.6460 C.ar  193  TRP193      0.0810
    121  CE3       12.5680  -10.4530   27.9070 C.ar  193  TRP193      0.0012
    122  CZ2       14.1910  -12.1870   29.4990 C.ar  193  TRP193      0.0191
    123  CZ3       12.0240  -11.4330   28.7380 C.ar  193  TRP193      0.0001
    124  CH2       12.8170  -12.2750   29.5280 C.ar  193  TRP193      0.0015
    125  N         12.0470   -7.2260   27.3690 N.am  194  GLY194     -0.1940
    126  CA        10.9360   -7.2600   28.3230 C.3   194  GLY194      0.2014
    127  C          9.6780   -7.6300   27.5160 C.2   194  GLY194      0.2640
    128  O          9.7110   -7.4910   26.2870 O.2   194  GLY194     -0.2714
    129  N          8.6380   -8.0880   28.2300 N.am  195  SER195     -0.1935
    130  CA         7.3770   -8.3890   27.5000 C.3   195  SER195      0.2055
    131  C          6.5860   -7.1060   27.3480 C.2   195  SER195      0.2644
    132  O          6.1010   -6.5410   28.3480 O.2   195  SER195     -0.2714
    133  CB         6.5450   -9.4340   28.2780 C.3   195  SER195      0.2130
    134  OG         5.2370   -9.4390   27.6300 O.3   195  SER195     -0.2179
    135  N          6.3680   -6.6060   26.1370 N.am  196  GLY196     -0.1939
    136  CA         5.7500   -5.2960   25.9720 C.3   196  GLY196      0.2014
    137  C          6.6790   -4.2850   26.6910 C.2   196  GLY196      0.2639
    138  O          7.8760   -4.5260   26.8990 O.2   196  GLY196     -0.2714
    139  N          6.1350   -3.1380   27.0280 N.am  197  CYS197     -0.1967
    140  CA         6.7860   -2.0820   27.7660 C.3   197  CYS197      0.1712
    141  C          5.8550   -1.5250   28.8480 C.2   197  CYS197      0.2296
    142  O          4.6910   -1.2280   28.5890 O.2   197  CYS197     -0.2864
    143  CB         7.1480   -0.8930   26.8650 C.3   197  CYS197      0.0983
    144  SG         8.2150   -1.3910   25.5060 S.3   197  CYS197     -0.0798
    145  N          5.7090   -7.2480   34.4160 N.3   202  LYS202     -0.1231
    146  CA         6.6780   -7.6310   33.3690 C.3   202  LYS202      0.1678
    147  C          7.7330   -6.5220   33.3360 C.2   202  LYS202      0.2434
    148  O          7.5460   -5.5660   32.5950 O.2   202  LYS202     -0.2733
    149  CB         5.9410   -7.6630   32.0370 C.3   202  LYS202      0.0284
    150  CG         4.8570   -8.7240   31.8540 C.3   202  LYS202      0.0035
    151  CD         5.4800  -10.1030   31.9780 C.3   202  LYS202      0.0206
    152  CE         4.4820  -11.2130   31.6380 C.3   202  LYS202      0.1093
    153  NZ         5.1310  -12.5440   31.8380 N.3   202  LYS202     -0.1314
    154  N          8.6770   -6.5580   34.2690 N.am  203  PRO203     -0.2718
    155  CA         9.6270   -5.4560   34.3800 C.3   203  PRO203      0.1535
    156  C         10.7160   -5.5240   33.3290 C.2   203  PRO203      0.2599
    157  O         10.8070   -6.5030   32.5660 O.2   203  PRO203     -0.2715
    158  CB        10.1580   -5.6800   35.7990 C.3   203  PRO203      0.0310
    159  CG        10.2160   -7.1720   35.9150 C.3   203  PRO203      0.0237
    160  CD         8.9440   -7.6490   35.2230 C.3   203  PRO203      0.0939
    161  N         11.5480   -4.4720   33.2450 N.am  204  GLY204     -0.1941
    162  CA        12.6080   -4.5660   32.2080 C.3   204  GLY204      0.2014
    163  C         13.6220   -5.6120   32.5940 C.2   204  GLY204      0.2639
    164  O         13.9250   -5.8510   33.7530 O.2   204  GLY204     -0.2714
    165  N         14.2720   -6.2630   31.6190 N.am  205  VAL205     -0.1963
    166  CA        15.3350   -7.2320   31.8260 C.3   205  VAL205      0.1727
    167  C         16.6140   -6.6670   31.1860 C.2   205  VAL205      0.2616
    168  O         16.5820   -6.0840   30.0970 O.2   205  VAL205     -0.2715
    169  CB        15.0140   -8.5950   31.1930 C.3   205  VAL205      0.0290
    170  CG1       16.0700   -9.6340   31.5670 C.3   205  VAL205      0.0023
    171  CG2       13.6040   -9.0850   31.5090 C.3   205  VAL205      0.0023
    172  N         17.7220   -6.6500   31.9050 N.am  206  TYR206     -0.1974
    173  CA        18.9620   -5.9880   31.5320 C.3   206  TYR206      0.1639
    174  C         20.1420   -6.9300   31.5560 C.2   206  TYR206      0.2290
    175  O         20.3230   -7.7530   32.4840 O.2   206  TYR206     -0.2864
    176  CB        19.2040   -4.8210   32.5800 C.3   206  TYR206      0.0560
    177  CG        18.0210   -3.8350   32.4680 C.ar  206  TYR206     -0.0198
    178  CD1       18.0230   -2.8780   31.4610 C.ar  206  TYR206     -0.0009
    179  CD2       16.9230   -3.8980   33.3200 C.ar  206  TYR206     -0.0009
    180  CE1       16.9740   -1.9940   31.3000 C.ar  206  TYR206      0.0417
    181  CE2       15.8670   -2.9940   33.1980 C.ar  206  TYR206      0.0417
    182  CZ        15.8940   -2.0670   32.1690 C.ar  206  TYR206      0.1957
    183  OH        14.8570   -1.1970   31.9970 O.3   206  TYR206     -0.2866
@<TRIPOS>BOND
     1    16    15    1
     2     4     3    2
     3    15    12    1
     4    24    22   am
     5     3     2    1
     6    23    22    2
     7    22    21    1
     8     2     5    1
     9     2     1    1
    10    90    89    2
    11    12    13    1
    12    12    11    1
    13     5     6    1
    14    14    13    2
    15    13    17   am
    16     8     6   ar
    17     8    10   ar
    18    88    89    1
    19    88    87    1
    20    17    18    1
    21    89    91   am
    22    21    18    1
    23     6     7   ar
    24    87    84    1
    25    18    19    1
    26    10     9   ar
    27    85    86    2
    28    85    84    1
    29    47    45   am
    30    84    83    1
    31    45    46    2
    32    45    44    1
    33     7     9   ar
    34    44    41    1
    35    96    97    1
    36    96    93    1
    37    19    20    2
    38    19    25   am
    39    95    94    2
    40    40    41    1
    41    41    42    1
    42    39    37    1
    43    25    26    1
    44    83    79   am
    45    94    93    1
    46    93    92    1
    47    37    38    1
    48    37    36    1
    49    42    43    2
    50    80    79    2
    51    32    33    1
    52    32    27   am
    53    79    78    1
    54    82   144    1
    55    82    81    1
    56    26    27    1
    57    26    29    1
    58    33    36    1
    59    33    34    1
    60   108   107    2
    61    27    28    2
    62    30    29    1
    63    31    29    1
    64    51    50    2
    65   144   143    1
    66    81    78    1
    67    50    49    1
    68    78    77    1
    69    34    35    2
    70   136   135    1
    71   136   137    1
    72   101   100    2
    73   135   131   am
    74   115   112    1
    75   115   116    1
    76   107   106    1
    77   107   111   am
    78   128   127    2
    79    48    49    1
    80    49    52    1
    81   112   111    1
    82   112   113    1
    83   137   138    2
    84   137   139   am
    85   106   105    1
    86   106   109    1
    87   110   109    1
    88    77    73   am
    89   143   140    1
    90   139   140    1
    91   100   105   am
    92   100    99    1
    93   103   102    1
    94   116   117   ar
    95   116   118   ar
    96   131   130    1
    97   131   132    2
    98   125   113   am
    99   125   126    1
   100    62    60   am
   101   102    99    1
   102   102   104    1
   103   130   129    1
   104   130   133    1
   105   127   129   am
   106   127   126    1
   107   117   119   ar
   108   134   133    1
   109   113   114    2
   110   140   141    1
   111   118   121   ar
   112   118   120   ar
   113   121   123   ar
   114    52    53    1
   115    73    74    2
   116    73    72    1
   117    99    98    1
   118   119   120   ar
   119   142   141    2
   120   120   122   ar
   121    60    61    2
   122    60    59    1
   123   123   124   ar
   124    72    75    1
   125    72    71    1
   126    75    76    1
   127    59    58    1
   128   122   124   ar
   129   168   167    2
   130    66    65    2
   131    58    55    1
   132    71    65   am
   133    57    56    2
   134    70    68   ar
   135    65    64    1
   136    55    56    1
   137    55    54    1
   138   167   166    1
   139   167   172   am
   140   169   171    1
   141   169   170    1
   142   169   166    1
   143    68    69   ar
   144    68    67    1
   145   180   178   ar
   146   180   182   ar
   147   178   177   ar
   148    67    64    1
   149   173   174    1
   150   173   172    1
   151   173   176    1
   152   174   175    2
   153   165   166    1
   154   165   163   am
   155   152   153    1
   156   152   151    1
   157   150   151    1
   158   150   149    1
   159    64    63    1
   160   183   182    1
   161   149   146    1
   162   182   181   ar
   163   162   163    1
   164   162   161    1
   165   177   176    1
   166   177   179   ar
   167   157   156    2
   168   163   164    2
   169   148   147    2
   170   181   179   ar
   171   161   156   am
   172   156   155    1
   173   147   146    1
   174   147   154   am
   175   146   145    1
   176   154   155    1
   177   154   160    1
   178   155   158    1
   179   160   159    1
   180   158   159    1
