@<TRIPOS>MOLECULE
tmp/1eb3A00.pdb
 173 163 0 0 0
SMALL
GASTEIGER

@<TRIPOS>ATOM
      1  N         16.1020   32.1020   21.6300 N.3    89  PHE89      -0.1241
      2  CA        17.2830   31.5090   22.1790 C.3    89  PHE89       0.1605
      3  C         17.9410   32.4630   23.2000 C.2    89  PHE89       0.2264
      4  O         18.1790   33.6390   22.9480 O.2    89  PHE89      -0.2867
      5  CB        18.3240   31.1660   21.1160 C.3    89  PHE89       0.0534
      6  CG        17.8180   30.2050   20.0570 C.ar   89  PHE89      -0.0203
      7  CD1       17.1390   30.7040   18.9560 C.ar   89  PHE89      -0.0042
      8  CD2       18.0350   28.8480   20.1890 C.ar   89  PHE89      -0.0042
      9  CE1       16.6910   29.8140   17.9910 C.ar   89  PHE89      -0.0003
     10  CE2       17.6000   27.9630   19.2170 C.ar   89  PHE89      -0.0003
     11  CZ        16.9310   28.4630   18.1090 C.ar   89  PHE89      -0.0000
     12  N         13.0090   27.7350   22.1480 N.3   131  ASP131     -0.1239
     13  CA        13.8980   26.5950   22.0890 C.3   131  ASP131      0.1674
     14  C         13.9910   26.0200   23.5140 C.2   131  ASP131      0.2266
     15  O         14.0600   26.8110   24.4560 O.2   131  ASP131     -0.2867
     16  CB        15.2740   26.9820   21.6090 C.3   131  ASP131      0.1410
     17  CG        16.2180   25.8140   21.4070 C.2   131  ASP131      0.3668
     18  OD1       16.0160   24.9890   20.4890 O.co2 131  ASP131     -0.2456
     19  OD2       17.2000   25.7140   22.1650 O.co2 131  ASP131     -0.2456
     20  N         22.0600   23.3720   26.6040 N.3   135  CYS135     -0.1221
     21  CA        23.4070   23.6520   26.1060 C.3   135  CYS135      0.1808
     22  C         23.7920   25.1160   26.2700 C.2   135  CYS135      0.2601
     23  O         24.9610   25.4120   26.5330 O.2   135  CYS135     -0.2717
     24  CB        23.5960   23.2250   24.6510 C.3   135  CYS135      0.0970
     25  SG        22.3180   23.7470   23.4550 S.3   135  CYS135     -0.0800
     26  N         22.8650   26.0510   26.1220 N.am  136  GLU136     -0.1979
     27  CA        23.1920   27.4600   26.3120 C.3   136  GLU136      0.1602
     28  C         23.3490   27.7870   27.8010 C.2   136  GLU136      0.2287
     29  O         23.6010   28.9290   28.1800 O.2   136  GLU136     -0.2864
     30  CB        22.1090   28.3240   25.6580 C.3   136  GLU136      0.0415
     31  CG        22.1420   28.3850   24.1400 C.3   136  GLU136      0.1163
     32  CD        20.8020   28.5110   23.4600 C.2   136  GLU136      0.3649
     33  OE1       20.4900   27.6410   22.6070 O.co2 136  GLU136     -0.2457
     34  OE2       20.0230   29.4600   23.7130 O.co2 136  GLU136     -0.2457
     35  N         23.7640   19.4150   25.8020 N.3   143  CYS143     -0.1235
     36  CA        22.3230   19.5810   25.7540 C.3   143  CYS143      0.1677
     37  C         21.5960   18.9510   26.9360 C.2   143  CYS143      0.2270
     38  O         20.4240   19.2520   27.2110 O.2   143  CYS143     -0.2867
     39  CB        21.8380   19.0090   24.3930 C.3   143  CYS143      0.0956
     40  SG        22.4990   20.0780   23.0510 S.3   143  CYS143     -0.0801
     41  N         15.1050   20.8630   21.6050 N.3   179  SER179     -0.1217
     42  CA        16.1640   20.6350   20.6290 C.3   179  SER179      0.1889
     43  C         17.2690   19.7300   21.1360 C.2   179  SER179      0.2288
     44  O         18.3620   19.6770   20.5610 O.2   179  SER179     -0.2866
     45  CB        16.7410   21.9890   20.2040 C.3   179  SER179      0.2089
     46  OG        17.4120   22.6920   21.2270 O.3   179  SER179     -0.2183
     47  N         12.1170   19.1360   17.6750 N.3   207  TYR207     -0.1241
     48  CA        13.2350   18.8510   16.7770 C.3   207  TYR207      0.1605
     49  C         13.4610   17.3360   16.8080 C.2   207  TYR207      0.2264
     50  O         14.2950   16.7070   17.4470 O.2   207  TYR207     -0.2867
     51  CB        14.5150   19.5850   17.0600 C.3   207  TYR207      0.0534
     52  CG        14.6860   21.0580   17.2000 C.ar  207  TYR207     -0.0201
     53  CD1       14.0620   21.7840   18.2150 C.ar  207  TYR207     -0.0009
     54  CD2       15.4960   21.7720   16.3260 C.ar  207  TYR207     -0.0009
     55  CE1       14.2210   23.1420   18.3420 C.ar  207  TYR207      0.0417
     56  CE2       15.6740   23.1340   16.4440 C.ar  207  TYR207      0.0417
     57  CZ        15.0360   23.8130   17.4520 C.ar  207  TYR207      0.1957
     58  OH        15.2180   25.1640   17.5820 O.3   207  TYR207     -0.2866
     59  N         16.9250   15.8150   14.0400 N.3   210  LYS210     -0.1245
     60  CA        17.9990   16.7870   14.2060 C.3   210  LYS210      0.1561
     61  C         19.3560   16.1110   14.1100 C.2   210  LYS210      0.2260
     62  O         19.7350   15.2320   14.8890 O.2   210  LYS210     -0.2867
     63  CB        17.8510   17.5190   15.5520 C.3   210  LYS210      0.0271
     64  CG        18.8180   18.6700   15.7460 C.3   210  LYS210      0.0035
     65  CD        18.5530   19.3950   17.0680 C.3   210  LYS210      0.0206
     66  CE        19.6270   20.4610   17.2880 C.3   210  LYS210      0.1093
     67  NZ        18.9840   21.7890   17.4640 N.3   210  LYS210     -0.1314
     68  N         26.4760   24.0540   12.0390 N.3   216  TYR216     -0.1241
     69  CA        26.0010   24.8740   13.1440 C.3   216  TYR216      0.1605
     70  C         27.0210   25.8810   13.6600 C.2   216  TYR216      0.2264
     71  O         26.7820   26.4920   14.7110 O.2   216  TYR216     -0.2867
     72  CB        25.5570   24.0000   14.3350 C.3   216  TYR216      0.0534
     73  CG        24.5260   22.9430   14.0140 C.ar  216  TYR216     -0.0201
     74  CD1       23.4590   23.1860   13.1480 C.ar  216  TYR216     -0.0009
     75  CD2       24.6150   21.6820   14.5790 C.ar  216  TYR216     -0.0009
     76  CE1       22.5290   22.1980   12.8690 C.ar  216  TYR216      0.0417
     77  CE2       23.6940   20.6830   14.3110 C.ar  216  TYR216      0.0417
     78  CZ        22.6470   20.9510   13.4480 C.ar  216  TYR216      0.1957
     79  OH        21.7310   19.9620   13.1910 O.3   216  TYR216     -0.2866
     80  N         25.7600   29.6540   14.6540 N.3   219  PHE219     -0.1227
     81  CA        24.8130   29.6040   15.7610 C.3   219  PHE219      0.1736
     82  C         25.5560   29.5050   17.1000 C.2   219  PHE219      0.2595
     83  O         25.2180   30.1860   18.0590 O.2   219  PHE219     -0.2718
     84  CB        23.8850   28.3970   15.6720 C.3   219  PHE219      0.0547
     85  CG        22.8970   28.2240   16.8110 C.ar  219  PHE219     -0.0202
     86  CD1       21.6860   28.8990   16.7960 C.ar  219  PHE219     -0.0042
     87  CD2       23.1630   27.3980   17.8910 C.ar  219  PHE219     -0.0042
     88  CE1       20.7610   28.7520   17.8120 C.ar  219  PHE219     -0.0003
     89  CE2       22.2590   27.2580   18.9170 C.ar  219  PHE219     -0.0003
     90  CZ        21.0680   27.9480   18.9030 C.ar  219  PHE219     -0.0000
     91  N         26.5260   28.6000   17.1030 N.am  220  ARG220     -0.1980
     92  CA        27.3070   28.3120   18.2990 C.3   220  ARG220      0.1597
     93  C         28.0290   29.5760   18.7470 C.2   220  ARG220      0.2287
     94  O         28.1460   29.8360   19.9380 O.2   220  ARG220     -0.2864
     95  CB        28.2710   27.1500   18.0380 C.3   220  ARG220      0.0334
     96  CG        27.7030   25.8300   18.5490 C.3   220  ARG220      0.0492
     97  CD        28.2370   24.6250   17.7960 C.3   220  ARG220      0.2205
     98  NE        27.2470   23.5450   17.8180 N.pl3 220  ARG220     -0.0865
     99  CZ        27.5030   22.2630   17.6230 C.cat 220  ARG220      0.5346
    100  NH1       28.7500   21.8720   17.3850 N.pl3 220  ARG220      0.1354
    101  NH2       26.5250   21.3580   17.6620 N.pl3 220  ARG220      0.1354
    102  N         27.2080   28.3290   22.8210 N.3   225  SER225     -0.1217
    103  CA        26.7670   27.0670   23.4150 C.3   225  SER225      0.1889
    104  C         27.6030   25.8660   23.0110 C.2   225  SER225      0.2288
    105  O         27.1730   24.7200   23.2060 O.2   225  SER225     -0.2866
    106  CB        25.2930   26.8440   23.0400 C.3   225  SER225      0.2089
    107  OG        25.0770   27.2070   21.6810 O.3   225  SER225     -0.2183
    108  N         28.3530   16.2560   19.8600 N.3   232  ARG232     -0.1245
    109  CA        26.9780   15.8020   20.0260 C.3   232  ARG232      0.1563
    110  C         26.6500   14.4970   19.3150 C.2   232  ARG232      0.2260
    111  O         25.4580   14.2030   19.1320 O.2   232  ARG232     -0.2867
    112  CB        26.0280   16.9020   19.5280 C.3   232  ARG232      0.0307
    113  CG        26.3430   18.2950   20.0610 C.3   232  ARG232      0.0489
    114  CD        25.0470   19.0700   20.2430 C.3   232  ARG232      0.2205
    115  NE        25.2000   20.4980   20.4760 N.pl3 232  ARG232     -0.0865
    116  CZ        25.8450   21.0270   21.5090 C.cat 232  ARG232      0.5346
    117  NH1       26.3890   20.1870   22.3870 N.pl3 232  ARG232      0.1354
    118  NH2       25.9430   22.3410   21.6570 N.pl3 232  ARG232      0.1354
    119  N         22.6300   13.7130   18.8400 N.3   236  GLN236     -0.1245
    120  CA        22.1720   14.1980   17.5240 C.3   236  GLN236      0.1566
    121  C         22.3380   13.0680   16.5260 C.2   236  GLN236      0.2260
    122  O         23.2300   12.2270   16.6670 O.2   236  GLN236     -0.2867
    123  CB        22.9130   15.4590   17.1010 C.3   236  GLN236      0.0367
    124  CG        22.2900   16.7230   17.6850 C.3   236  GLN236      0.0905
    125  CD        23.1340   17.9570   17.4460 C.2   236  GLN236      0.2608
    126  OE1       24.1500   17.9130   16.7550 O.2   236  GLN236     -0.2717
    127  NE2       22.7060   19.0720   18.0310 N.am  236  GLN236     -0.0878
    128  N         16.0730   19.4180   10.8490 N.3   263  LYS263     -0.1245
    129  CA        17.2060   20.3480   10.8850 C.3   263  LYS263      0.1561
    130  C         18.5230   19.6400   10.7290 C.2   263  LYS263      0.2260
    131  O         18.7070   18.6010   11.4010 O.2   263  LYS263     -0.2867
    132  CB        17.1990   21.0910   12.2310 C.3   263  LYS263      0.0271
    133  CG        18.5350   21.6850   12.6330 C.3   263  LYS263      0.0035
    134  CD        18.3580   22.4210   13.9780 C.3   263  LYS263      0.0206
    135  CE        19.7150   22.9160   14.4500 C.3   263  LYS263      0.1093
    136  NZ        19.5480   23.7120   15.6660 N.3   263  LYS263     -0.1314
    137  N         14.2750   23.9010    9.3320 N.3   287  TYR287     -0.1241
    138  CA        15.1900   24.8650    9.9570 C.3   287  TYR287      0.1605
    139  C         16.3960   25.0880    9.0410 C.2   287  TYR287      0.2264
    140  O         17.2960   24.2510    8.9310 O.2   287  TYR287     -0.2867
    141  CB        15.6440   24.4620   11.3660 C.3   287  TYR287      0.0534
    142  CG        16.1680   25.5530   12.2730 C.ar  287  TYR287     -0.0201
    143  CD1       15.7610   25.5950   13.6220 C.ar  287  TYR287     -0.0009
    144  CD2       17.0430   26.5520   11.9020 C.ar  287  TYR287     -0.0009
    145  CE1       16.2400   26.5910   14.4590 C.ar  287  TYR287      0.0417
    146  CE2       17.5300   27.5520   12.7100 C.ar  287  TYR287      0.0417
    147  CZ        17.1080   27.5640   14.0380 C.ar  287  TYR287      0.1957
    148  OH        17.5780   28.5560   14.8720 O.3   287  TYR287     -0.2866
    149  N         19.5400   26.4020    8.8510 N.3   289  VAL289     -0.1231
    150  CA        20.4680   26.6410    9.9490 C.3   289  VAL289      0.1692
    151  C         21.5240   27.6720    9.5700 C.2   289  VAL289      0.2592
    152  O         21.7270   28.0260    8.4070 O.2   289  VAL289     -0.2718
    153  CB        21.1630   25.3610   10.4500 C.3   289  VAL289      0.0266
    154  CG1       20.1400   24.3280   10.8980 C.3   289  VAL289      0.0020
    155  CG2       22.0920   24.7670    9.4040 C.3   289  VAL289      0.0020
    156  N         22.2090   28.1540   10.6100 N.am  290  SER290     -0.1952
    157  CA        23.1650   29.2520   10.4590 C.3   290  SER290      0.1924
    158  C         24.2610   28.9280    9.4570 C.2   290  SER290      0.2314
    159  O         24.7180   29.8210    8.7340 O.2   290  SER290     -0.2863
    160  CB        23.7480   29.5960   11.8400 C.3   290  SER290      0.2116
    161  OG        24.4670   28.4600   12.3240 O.3   290  SER290     -0.2180
    162  N         16.7840   32.5990    9.0820 N.3   329  TYR329     -0.1241
    163  CA        17.4910   33.8390    9.3290 C.3   329  TYR329      0.1605
    164  C         17.2540   34.8080    8.1720 C.2   329  TYR329      0.2264
    165  O         17.5810   35.9860    8.2360 O.2   329  TYR329     -0.2867
    166  CB        18.9930   33.6090    9.5610 C.3   329  TYR329      0.0534
    167  CG        19.2430   32.7030   10.7570 C.ar  329  TYR329     -0.0201
    168  CD1       19.5900   31.3750   10.5590 C.ar  329  TYR329     -0.0009
    169  CD2       19.1280   33.1460   12.0740 C.ar  329  TYR329     -0.0009
    170  CE1       19.8260   30.5070   11.6110 C.ar  329  TYR329      0.0417
    171  CE2       19.3620   32.2800   13.1400 C.ar  329  TYR329      0.0417
    172  CZ        19.7100   30.9760   12.9120 C.ar  329  TYR329      0.1957
    173  OH        19.9490   30.0670   13.9220 O.3   329  TYR329     -0.2866
@<TRIPOS>BOND
     1   164   165    2
     2   164   163    1
     3   152   151    2
     4   159   158    2
     5   149   150    1
     6   140   139    2
     7   139   138    1
     8   162   163    1
     9   163   166    1
    10   137   138    1
    11   155   153    1
    12   158   157    1
    13   166   167    1
    14   151   150    1
    15   151   156   am
    16   150   153    1
    17   138   141    1
    18   153   154    1
    19   157   156    1
    20   157   160    1
    21   168   167   ar
    22   168   170   ar
    23   130   129    1
    24   130   131    2
    25   167   169   ar
    26   128   129    1
    27   129   132    1
    28   141   142    1
    29   170   172   ar
    30   160   161    1
    31   144   142   ar
    32   144   146   ar
    33    68    69    1
    34   169   171   ar
    35   132   133    1
    36   142   143   ar
    37   133   134    1
    38   146   147   ar
    39    76    74   ar
    40    76    78   ar
    41   172   171   ar
    42   172   173    1
    43    69    70    1
    44    69    72    1
    45    74    73   ar
    46    79    78    1
    47    78    77   ar
    48   143   145   ar
    49    70    71    2
    50   134   135    1
    51    73    72    1
    52    73    75   ar
    53   147   145   ar
    54   147   148    1
    55    59    60    1
    56    61    60    1
    57    61    62    2
    58    60    63    1
    59    77    75   ar
    60   135   136    1
    61    80    81    1
    62    63    64    1
    63    84    81    1
    64    84    85    1
    65    64    65    1
    66    81    82    1
    67    54    56   ar
    68    54    52   ar
    69    56    57   ar
    70   121   122    2
    71   121   120    1
    72   126   125    2
    73    48    49    1
    74    48    51    1
    75    48    47    1
    76    86    85   ar
    77    86    88   ar
    78    49    50    2
    79    85    87   ar
    80    51    52    1
    81    65    66    1
    82    82    91   am
    83    82    83    2
    84   123   120    1
    85   123   124    1
    86    91    92    1
    87    52    53   ar
    88    66    67    1
    89   100    99    1
    90   125   124    1
    91   125   127   am
    92    57    58    1
    93    57    55   ar
    94   120   119    1
    95    99   101    1
    96    99    98    2
    97    97    98    1
    98    97    96    1
    99    88    90   ar
   100    87    89   ar
   101     9    11   ar
   102     9     7   ar
   103    95    92    1
   104    95    96    1
   105    11    10   ar
   106    53    55   ar
   107    92    93    1
   108    93    94    2
   109    90    89   ar
   110     7     6   ar
   111   111   110    2
   112    10     8   ar
   113   110   109    1
   114   112   109    1
   115   112   113    1
   116   108   109    1
   117     6     8   ar
   118     6     5    1
   119   113   114    1
   120    45    42    1
   121    45    46    1
   122   114   115    1
   123   115   116    2
   124    18    17   ar
   125    44    43    2
   126    42    43    1
   127    42    41    1
   128     5     2    1
   129    17    16    1
   130    17    19   ar
   131   116   118    1
   132   116   117    1
   133    16    13    1
   134     1     2    1
   135   107   106    1
   136    13    12    1
   137    13    14    1
   138     2     3    1
   139    33    32   ar
   140   102   103    1
   141     4     3    2
   142   104   105    2
   143   104   103    1
   144   106   103    1
   145    40    39    1
   146    25    24    1
   147    32    34   ar
   148    32    31    1
   149    14    15    2
   150    31    30    1
   151    39    36    1
   152    24    21    1
   153    30    27    1
   154    36    35    1
   155    36    37    1
   156    21    22    1
   157    21    20    1
   158    26    22   am
   159    26    27    1
   160    22    23    2
   161    27    28    1
   162    37    38    2
   163    28    29    2
