@<TRIPOS>MOLECULE
tmp/1eb8B00.pdb
 150 141 0 0 0
SMALL
GASTEIGER

@<TRIPOS>ATOM
      1  N         54.1530   25.3440   99.4100 N.3    11  THR11      -0.1203
      2  CA        53.1670   24.6600   98.5690 C.3    11  THR11       0.1994
      3  C         51.7600   25.2080   98.7530 C.2    11  THR11       0.2617
      4  O         51.5210   25.9500   99.7070 O.2    11  THR11      -0.2717
      5  CB        53.2420   23.1780   98.9130 C.3    11  THR11       0.1784
      6  OG1       52.4070   22.5560   97.9630 O.3    11  THR11      -0.2211
      7  CG2       52.7940   22.8040  100.2880 C.3    11  THR11       0.0376
      8  N         50.7990   24.8860   97.9210 N.am   12  ILE12      -0.1979
      9  CA        49.4320   25.3540   98.0780 C.3    12  ILE12       0.1595
     10  C         48.9150   25.1550   99.5210 C.2    12  ILE12       0.2287
     11  O         49.3740   24.2570  100.2770 O.2    12  ILE12      -0.2864
     12  CB        48.5180   24.6020   97.0370 C.3    12  ILE12       0.0276
     13  CG1       48.4200   23.0690   97.2380 C.3    12  ILE12       0.0022
     14  CG2       49.1150   24.9590   95.6710 C.3    12  ILE12       0.0022
     15  CD1       47.2850   22.3750   96.4420 C.3    12  ILE12       0.0001
     16  N         49.7710   26.5630  102.1530 N.3    14  HIS14      -0.1241
     17  CA        50.7150   26.9700  103.2130 C.3    14  HIS14       0.1621
     18  C         51.1660   28.4210  102.9410 C.2    14  HIS14       0.2264
     19  O         50.5310   29.1350  102.1390 O.2    14  HIS14      -0.2867
     20  CB        51.9350   25.9890  103.2530 C.3    14  HIS14       0.0745
     21  CG        51.5990   24.4830  103.4580 C.ar   14  HIS14       0.0817
     22  ND1       50.7000   23.6810  102.8300 N.ar   14  HIS14      -0.2268
     23  CD2       52.2360   23.6630  104.3730 C.ar   14  HIS14       0.1154
     24  CE1       50.7690   22.4630  103.3110 C.ar   14  HIS14       0.1986
     25  NE2       51.6960   22.4670  104.2370 N.ar   14  HIS14      -0.2212
     26  N         56.7670   20.4330   97.8220 N.3    80  SER80      -0.1202
     27  CA        55.5340   19.8010   97.3700 C.3    80  SER80       0.2020
     28  C         54.9900   20.2930   96.0350 C.2    80  SER80       0.2619
     29  O         55.5790   19.9610   95.0000 O.2    80  SER80      -0.2717
     30  CB        54.6070   19.9710   98.5230 C.3    80  SER80       0.2103
     31  OG        53.2560   19.6060   98.3440 O.3    80  SER80      -0.2182
     32  N         53.9310   21.1050   95.9530 N.am   81  CYS81      -0.1969
     33  CA        53.4220   21.5010   94.6710 C.3    81  CYS81       0.1712
     34  C         54.2160   22.6360   94.0980 C.2    81  CYS81       0.2296
     35  O         54.0630   22.9360   92.9120 O.2    81  CYS81      -0.2864
     36  CB        51.9630   21.8810   94.8100 C.3    81  CYS81       0.0983
     37  SG        50.9070   20.4720   95.2910 S.3    81  CYS81      -0.0798
     38  N         50.5390   12.2250   91.0660 N.3   121  LEU121     -0.1231
     39  CA        50.4780   12.3590   92.5090 C.3   121  LEU121      0.1693
     40  C         49.1150   11.9050   92.9660 C.2   121  LEU121      0.2591
     41  O         48.9760   11.1650   93.9410 O.2   121  LEU121     -0.2718
     42  CB        50.6520   13.8030   92.9520 C.3   121  LEU121      0.0284
     43  CG        50.3690   14.1860   94.4210 C.3   121  LEU121      0.0019
     44  CD1       51.4110   13.5490   95.3360 C.3   121  LEU121      0.0001
     45  CD2       50.3240   15.7230   94.5390 C.3   121  LEU121      0.0001
     46  N         48.0590   12.3120   92.2870 N.am  122  LEU122     -0.1980
     47  CA        46.7300   11.9520   92.7820 C.3   122  LEU122      0.1596
     48  C         46.4440   10.4710   92.6420 C.2   122  LEU122      0.2287
     49  O         45.7670    9.8570   93.4630 O.2   122  LEU122     -0.2864
     50  CB        45.7100   12.8050   92.0320 C.3   122  LEU122      0.0297
     51  CG        45.8560   14.3220   92.2830 C.3   122  LEU122      0.0022
     52  CD1       44.7510   15.0720   91.5840 C.3   122  LEU122      0.0001
     53  CD2       45.8240   14.6000   93.7700 C.3   122  LEU122      0.0001
     54  N         48.1580    8.9280   95.5620 N.3   125  PHE125     -0.1241
     55  CA        47.5920    9.2640   96.8460 C.3   125  PHE125      0.1605
     56  C         46.2280    9.8300   96.5530 C.2   125  PHE125      0.2264
     57  O         46.0580   11.0450   96.4780 O.2   125  PHE125     -0.2867
     58  CB        48.4990   10.2970   97.5450 C.3   125  PHE125      0.0534
     59  CG        48.2100   10.5000   99.0230 C.ar  125  PHE125     -0.0203
     60  CD1       47.2540   11.4280   99.4450 C.ar  125  PHE125     -0.0042
     61  CD2       48.8870    9.7380   99.9610 C.ar  125  PHE125     -0.0042
     62  CE1       46.9710   11.5860  100.8030 C.ar  125  PHE125     -0.0003
     63  CE2       48.6050    9.9000  101.3200 C.ar  125  PHE125     -0.0003
     64  CZ        47.6500   10.8190  101.7360 C.ar  125  PHE125     -0.0000
     65  N         42.5100   12.0950  100.1960 N.3   128  ALA128     -0.1245
     66  CA        42.9790   13.1850  101.0300 C.3   128  ALA128      0.1562
     67  C         42.3270   13.1570  102.4030 C.2   128  ALA128      0.2260
     68  O         42.3320   14.1420  103.1430 O.2   128  ALA128     -0.2867
     69  CB        42.6730   14.5050  100.3840 C.3   128  ALA128      0.0290
     70  N         36.6490   19.9770   99.8580 N.3   133  TYR133     -0.1241
     71  CA        36.8250   20.5750   98.5640 C.3   133  TYR133      0.1605
     72  C         35.6740   21.5260   98.3470 C.2   133  TYR133      0.2264
     73  O         34.6360   21.4120   98.9970 O.2   133  TYR133     -0.2867
     74  CB        36.8180   19.5390   97.4600 C.3   133  TYR133      0.0534
     75  CG        37.9530   18.5510   97.6620 C.ar  133  TYR133     -0.0201
     76  CD1       39.2310   18.8380   97.1810 C.ar  133  TYR133     -0.0009
     77  CD2       37.7150   17.3470   98.3620 C.ar  133  TYR133     -0.0009
     78  CE1       40.2630   17.9160   97.3990 C.ar  133  TYR133      0.0417
     79  CE2       38.7470   16.4320   98.5840 C.ar  133  TYR133      0.0417
     80  CZ        40.0100   16.7290   98.0910 C.ar  133  TYR133      0.1957
     81  OH        41.0190   15.8150   98.2490 O.3   133  TYR133     -0.2866
     82  N         40.6650   23.3220   98.1230 N.3   147  MET147     -0.1245
     83  CA        40.6160   22.3820   99.1950 C.3   147  MET147      0.1570
     84  C         40.9810   23.1320  100.4560 C.2   147  MET147      0.2261
     85  O         41.6820   24.1500  100.4310 O.2   147  MET147     -0.2867
     86  CB        41.6100   21.2510   98.9180 C.3   147  MET147      0.0387
     87  CG        43.0570   21.7150   98.8920 C.3   147  MET147      0.0595
     88  SD        44.2620   20.4880   98.3580 S.3   147  MET147     -0.1393
     89  CE        44.0040   20.7960   96.6270 C.3   147  MET147      0.0692
     90  N         42.6930   21.6110  103.7160 N.3   149  LEU149     -0.1245
     91  CA        43.4260   20.4010  104.1320 C.3   149  LEU149      0.1561
     92  C         42.9560   19.9840  105.5020 C.2   149  LEU149      0.2260
     93  O         42.8430   20.8160  106.4130 O.2   149  LEU149     -0.2867
     94  CB        44.9580   20.6160  104.1960 C.3   149  LEU149      0.0270
     95  CG        45.7110   21.0690  102.9270 C.3   149  LEU149      0.0019
     96  CD1       47.1830   21.2430  103.2370 C.3   149  LEU149      0.0001
     97  CD2       45.5670   20.0500  101.8220 C.3   149  LEU149      0.0001
     98  N         44.8750   14.5990  108.0610 N.3   153  LEU153     -0.1245
     99  CA        45.8230   14.6070  106.9730 C.3   153  LEU153      0.1561
    100  C         47.0600   15.4560  107.3860 C.2   153  LEU153      0.2260
    101  O         48.2110   15.0030  107.2360 O.2   153  LEU153     -0.2867
    102  CB        45.1820   15.2060  105.7180 C.3   153  LEU153      0.0270
    103  CG        46.0770   15.1300  104.4770 C.3   153  LEU153      0.0019
    104  CD1       45.9600   13.7400  103.8420 C.3   153  LEU153      0.0001
    105  CD2       45.6860   16.2380  103.5320 C.3   153  LEU153      0.0001
    106  N         51.3230   15.0790  106.3230 N.3   158  LEU158     -0.1245
    107  CA        52.2390   16.1810  106.0150 C.3   158  LEU158      0.1561
    108  C         53.2480   16.5080  107.1170 C.2   158  LEU158      0.2260
    109  O         54.4600   16.5820  106.8480 O.2   158  LEU158     -0.2867
    110  CB        51.4230   17.4530  105.6560 C.3   158  LEU158      0.0270
    111  CG        50.8310   17.5580  104.2000 C.3   158  LEU158      0.0019
    112  CD1       49.5190   16.7510  104.0200 C.3   158  LEU158      0.0001
    113  CD2       50.5560   19.0350  103.9080 C.3   158  LEU158      0.0001
    114  N         45.1370   23.1600   93.0700 N.3   179  LEU179     -0.1245
    115  CA        46.0620   22.6350   92.0810 C.3   179  LEU179      0.1561
    116  C         45.8040   23.2840   90.7300 C.2   179  LEU179      0.2260
    117  O         46.6700   23.1990   89.8710 O.2   179  LEU179     -0.2867
    118  CB        45.9000   21.1440   91.8820 C.3   179  LEU179      0.0270
    119  CG        46.2060   20.2210   93.0180 C.3   179  LEU179      0.0019
    120  CD1       45.4790   18.8980   92.7580 C.3   179  LEU179      0.0001
    121  CD2       47.7070   20.1100   93.1890 C.3   179  LEU179      0.0001
    122  N         52.9610   11.7440  102.3150 N.3   210  ILE210     -0.1231
    123  CA        51.9820   12.1590  101.3160 C.3   210  ILE210      0.1692
    124  C         52.5910   12.0250   99.9060 C.2   210  ILE210      0.2592
    125  O         51.9320   11.5510   98.9880 O.2   210  ILE210     -0.2718
    126  CB        51.5030   13.6110  101.6930 C.3   210  ILE210      0.0266
    127  CG1       50.5730   14.0740  100.5970 C.3   210  ILE210      0.0019
    128  CG2       52.6530   14.5770  101.8920 C.3   210  ILE210      0.0020
    129  CD1       49.2230   14.4930  101.1440 C.3   210  ILE210      0.0001
    130  N         53.8410   12.4340   99.6650 N.am  211  PHE211     -0.1976
    131  CA        54.5790   12.2200   98.4160 C.3   211  PHE211      0.1639
    132  C         55.3830   10.9490   98.7250 C.2   211  PHE211      0.2290
    133  O         56.5210   10.9340   99.2400 O.2   211  PHE211     -0.2864
    134  CB        55.5480   13.3970   98.1000 C.3   211  PHE211      0.0560
    135  CG        54.8980   14.6620   97.5740 C.ar  211  PHE211     -0.0200
    136  CD1       53.6940   15.1590   98.1030 C.ar  211  PHE211     -0.0042
    137  CD2       55.4580   15.2760   96.4580 C.ar  211  PHE211     -0.0042
    138  CE1       53.0500   16.2540   97.4970 C.ar  211  PHE211     -0.0003
    139  CE2       54.8030   16.3760   95.8600 C.ar  211  PHE211     -0.0003
    140  CZ        53.6000   16.8670   96.3680 C.ar  211  PHE211     -0.0000
    141  N         57.5630   14.4780  105.4600 N.3   236  HIS236     -0.1241
    142  CA        57.3170   15.3710  104.3590 C.3   236  HIS236      0.1621
    143  C         57.8560   16.7700  104.5930 C.2   236  HIS236      0.2264
    144  O         58.2910   17.3970  103.6210 O.2   236  HIS236     -0.2867
    145  CB        55.8290   15.4280  104.1180 C.3   236  HIS236      0.0745
    146  CG        55.4040   16.3570  102.9840 C.ar  236  HIS236      0.0817
    147  ND1       55.7800   16.3540  101.7150 N.ar  236  HIS236     -0.2268
    148  CD2       54.4770   17.3690  103.1220 C.ar  236  HIS236      0.1154
    149  CE1       55.1240   17.2970  101.0860 C.ar  236  HIS236      0.1986
    150  NE2       54.3420   17.9040  101.9400 N.ar  236  HIS236     -0.2212
@<TRIPOS>BOND
     1   117   116    2
     2   116   115    1
     3    38    39    1
     4    52    51    1
     5   118   115    1
     6   118   119    1
     7    50    51    1
     8    50    47    1
     9   115   114    1
    10    51    53    1
    11    46    47    1
    12    46    40   am
    13    39    42    1
    14    39    40    1
    15    48    47    1
    16    48    49    2
    17   120   119    1
    18    35    34    2
    19    42    43    1
    20    40    41    2
    21   119   121    1
    22    34    33    1
    23    43    45    1
    24    43    44    1
    25    33    36    1
    26    33    32    1
    27    36    37    1
    28    29    28    2
    29    54    55    1
    30    14    12    1
    31   139   140   ar
    32   139   137   ar
    33    32    28   am
    34    28    27    1
    35   140   138   ar
    36    15    13    1
    37   137   135   ar
    38    57    56    2
    39    56    55    1
    40    89    88    1
    41    55    58    1
    42    12    13    1
    43    12     9    1
    44    76    78   ar
    45    76    75   ar
    46    27    26    1
    47    27    30    1
    48    78    80   ar
    49    74    75    1
    50    74    71    1
    51   138   136   ar
    52    58    59    1
    53   135   134    1
    54   135   136   ar
    55    75    77   ar
    56     8     9    1
    57     8     3   am
    58     6     5    1
    59     9    10    1
    60    80    81    1
    61    80    79   ar
    62   134   131    1
    63    82    83    1
    64    31    30    1
    65    72    71    1
    66    72    73    2
    67    88    87    1
    68    77    79   ar
    69   131   132    1
    70   131   130    1
    71    71    70    1
    72     2     3    1
    73     2     5    1
    74     2     1    1
    75   132   133    2
    76     3     4    2
    77    87    86    1
    78     5     7    1
    79    86    83    1
    80   125   124    2
    81    59    60   ar
    82    59    61   ar
    83    83    84    1
    84    60    62   ar
    85    10    11    2
    86   130   124   am
    87   124   123    1
    88    61    63   ar
    89    65    66    1
    90    69    66    1
    91    85    84    2
    92   127   129    1
    93   127   126    1
    94    62    64   ar
    95    66    67    1
    96   149   147   ar
    97   149   150   ar
    98   123   126    1
    99   123   122    1
   100    63    64   ar
   101   126   128    1
   102   147   146   ar
   103    97    95    1
   104   150   148   ar
   105    19    18    2
   106    16    17    1
   107    67    68    2
   108    22    24   ar
   109    22    21   ar
   110    95    96    1
   111    95    94    1
   112    18    17    1
   113   146   148   ar
   114   146   145    1
   115    17    20    1
   116    20    21    1
   117    24    25   ar
   118    21    23   ar
   119   105   103    1
   120   144   143    2
   121    90    91    1
   122   104   103    1
   123   113   111    1
   124   112   111    1
   125   145   142    1
   126    91    94    1
   127    91    92    1
   128   111   110    1
   129    25    23   ar
   130   142   143    1
   131   142   141    1
   132   103   102    1
   133    92    93    2
   134   110   107    1
   135   102    99    1
   136   107   106    1
   137   107   108    1
   138   109   108    2
   139    99   100    1
   140    99    98    1
   141   101   100    2
