@<TRIPOS>MOLECULE
tmp/1eb9A01.pdb
 150 141 0 0 0
SMALL
GASTEIGER

@<TRIPOS>ATOM
      1  N         47.5740   39.9590  120.8330 N.3    15  THR15      -0.1218
      2  CA        47.5300   41.4090  120.8590 C.3    15  THR15       0.1862
      3  C         47.4000   41.9390  119.4190 C.2    15  THR15       0.2287
      4  O         47.6230   41.1690  118.4850 O.2    15  THR15      -0.2866
      5  CB        48.8220   41.8990  121.5570 C.3    15  THR15       0.1770
      6  OG1       48.6520   43.2760  121.8180 O.3    15  THR15      -0.2211
      7  CG2       50.0640   41.7240  120.7200 C.3    15  THR15       0.0375
      8  N         49.1590   40.8470  115.8380 N.3    18  HIS18      -0.1241
      9  CA        49.5500   39.4550  115.9410 C.3    18  HIS18       0.1621
     10  C         48.3530   38.5660  115.5720 C.2    18  HIS18       0.2264
     11  O         47.3920   39.0500  114.9780 O.2    18  HIS18      -0.2867
     12  CB        50.0490   39.1890  117.3820 C.3    18  HIS18       0.0745
     13  CG        51.3160   39.9640  117.8070 C.ar   18  HIS18       0.0817
     14  ND1       51.5070   41.2810  117.8920 N.ar   18  HIS18      -0.2268
     15  CD2       52.4970   39.3670  118.2120 C.ar   18  HIS18       0.1154
     16  CE1       52.7270   41.4910  118.3260 C.ar   18  HIS18       0.1986
     17  NE2       53.3170   40.3330  118.5150 N.ar   18  HIS18      -0.2212
     18  N         49.3530   41.5990  126.2300 N.3    84  SER84      -0.1217
     19  CA        49.6040   42.9680  125.7940 C.3    84  SER84       0.1889
     20  C         48.3420   43.8300  125.5920 C.2    84  SER84       0.2288
     21  O         47.7180   44.1560  126.6050 O.2    84  SER84      -0.2866
     22  CB        50.4580   42.7950  124.5370 C.3    84  SER84       0.2089
     23  OG        51.2820   43.8780  124.1590 O.3    84  SER84      -0.2183
     24  N         50.5720   53.7520  128.7540 N.3   125  LEU125     -0.1231
     25  CA        51.5210   52.8950  128.0490 C.3   125  LEU125      0.1693
     26  C         52.3450   53.7440  127.1090 C.2   125  LEU125      0.2591
     27  O         53.5780   53.6560  127.1440 O.2   125  LEU125     -0.2718
     28  CB        50.8180   51.8220  127.2110 C.3   125  LEU125      0.0284
     29  CG        51.6570   51.0670  126.1880 C.3   125  LEU125      0.0019
     30  CD1       52.7980   50.3470  126.9160 C.3   125  LEU125      0.0001
     31  CD2       50.7260   50.1940  125.3320 C.3   125  LEU125      0.0001
     32  N         51.6980   54.6070  126.3330 N.am  126  LEU126     -0.1980
     33  CA        52.4530   55.3170  125.3310 C.3   126  LEU126      0.1596
     34  C         53.3560   56.3710  125.9270 C.2   126  LEU126      0.2287
     35  O         54.4330   56.6920  125.4370 O.2   126  LEU126     -0.2864
     36  CB        51.4690   55.8990  124.3560 C.3   126  LEU126      0.0297
     37  CG        50.6320   54.8990  123.5600 C.3   126  LEU126      0.0022
     38  CD1       49.7500   55.6730  122.6010 C.3   126  LEU126      0.0001
     39  CD2       51.5110   53.9160  122.8160 C.3   126  LEU126      0.0001
     40  N         56.3360   54.2520  126.8660 N.3   129  PHE129     -0.1228
     41  CA        57.1920   53.7240  125.8400 C.3   129  PHE129      0.1721
     42  C         56.7510   54.5010  124.6160 C.2   129  PHE129      0.2437
     43  O         55.8200   54.0980  123.9150 O.2   129  PHE129     -0.2733
     44  CB        56.9470   52.2390  125.7200 C.3   129  PHE129      0.0547
     45  CG        58.0480   51.6690  124.8690 C.ar  129  PHE129     -0.0202
     46  CD1       57.9430   51.6610  123.4740 C.ar  129  PHE129     -0.0042
     47  CD2       59.1810   51.1580  125.4830 C.ar  129  PHE129     -0.0042
     48  CE1       58.9830   51.1410  122.6990 C.ar  129  PHE129     -0.0003
     49  CE2       60.2170   50.6380  124.7010 C.ar  129  PHE129     -0.0003
     50  CZ        60.1260   50.6280  123.3160 C.ar  129  PHE129     -0.0000
     51  N         57.3360   55.6800  124.3960 N.am  130  PRO130     -0.2729
     52  CA        56.8990   56.5600  123.3340 C.3   130  PRO130      0.1401
     53  C         57.6330   56.3710  122.0140 C.2   130  PRO130      0.2269
     54  O         57.2000   56.8580  120.9570 O.2   130  PRO130     -0.2865
     55  CB        57.0650   57.9320  123.9410 C.3   130  PRO130      0.0296
     56  CG        58.3480   57.7780  124.7130 C.3   130  PRO130      0.0237
     57  CD        58.1420   56.4230  125.3680 C.3   130  PRO130      0.0939
     58  N         58.5440   53.9960  119.2130 N.3   132  ALA132     -0.1245
     59  CA        58.3200   52.6800  118.6240 C.3   132  ALA132      0.1562
     60  C         59.3470   52.3160  117.5720 C.2   132  ALA132      0.2260
     61  O         59.2000   51.3920  116.7630 O.2   132  ALA132     -0.2867
     62  CB        56.9580   52.5920  117.9690 C.3   132  ALA132      0.0290
     63  N         58.8390   51.2760  113.7090 N.3   135  THR135     -0.1218
     64  CA        57.4460   51.1250  113.3550 C.3   135  THR135      0.1862
     65  C         56.9820   52.1970  112.3390 C.2   135  THR135      0.2287
     66  O         57.3960   53.3560  112.4520 O.2   135  THR135     -0.2866
     67  CB        56.7070   51.2080  114.6680 C.3   135  THR135      0.1770
     68  OG1       57.2040   50.0790  115.3720 O.3   135  THR135     -0.2211
     69  CG2       55.2020   51.2150  114.5810 C.3   135  THR135      0.0375
     70  N         53.6480   54.1580  110.6280 N.3   137  TYR137     -0.1241
     71  CA        52.2740   54.5170  110.9790 C.3   137  TYR137      0.1605
     72  C         51.4500   54.8580  109.7860 C.2   137  TYR137      0.2264
     73  O         52.0340   55.3310  108.8120 O.2   137  TYR137     -0.2867
     74  CB        52.2810   55.6840  111.8740 C.3   137  TYR137      0.0534
     75  CG        52.8570   55.2280  113.1810 C.ar  137  TYR137     -0.0201
     76  CD1       52.0300   54.5620  114.0670 C.ar  137  TYR137     -0.0009
     77  CD2       54.1960   55.4550  113.5130 C.ar  137  TYR137     -0.0009
     78  CE1       52.5330   54.1230  115.2960 C.ar  137  TYR137      0.0417
     79  CE2       54.7150   55.0160  114.7440 C.ar  137  TYR137      0.0417
     80  CZ        53.8670   54.3490  115.6340 C.ar  137  TYR137      0.1957
     81  OH        54.3130   53.9030  116.8660 O.3   137  TYR137     -0.2866
     82  N         49.5130   50.7640  112.3250 N.3   151  MET151     -0.1245
     83  CA        50.9320   50.6200  112.2780 C.3   151  MET151      0.1570
     84  C         51.4030   49.2480  111.7950 C.2   151  MET151      0.2261
     85  O         50.6730   48.2510  111.8420 O.2   151  MET151     -0.2867
     86  CB        51.4230   50.9780  113.6870 C.3   151  MET151      0.0387
     87  CG        51.7500   49.9590  114.7220 C.3   151  MET151      0.0595
     88  SD        50.4470   49.3910  115.8140 S.3   151  MET151     -0.1393
     89  CE        50.0120   50.8050  116.7880 C.3   151  MET151      0.0692
     90  N         54.4820   47.1970  112.7960 N.3   153  LEU153     -0.1245
     91  CA        55.5650   47.1370  113.7660 C.3   153  LEU153      0.1561
     92  C         56.9690   46.9450  113.1240 C.2   153  LEU153      0.2260
     93  O         57.1500   46.0780  112.2490 O.2   153  LEU153     -0.2867
     94  CB        55.2430   45.9940  114.7500 C.3   153  LEU153      0.0270
     95  CG        53.9930   46.0400  115.6740 C.3   153  LEU153      0.0019
     96  CD1       53.9000   44.7640  116.5390 C.3   153  LEU153      0.0001
     97  CD2       54.0840   47.2730  116.5810 C.3   153  LEU153      0.0001
     98  N         62.2940   46.7610  116.6010 N.3   157  LEU157     -0.1245
     99  CA        61.4250   46.8120  117.7520 C.3   157  LEU157      0.1561
    100  C         60.9720   45.3880  118.0070 C.2   157  LEU157      0.2260
    101  O         61.0230   44.9500  119.1480 O.2   157  LEU157     -0.2867
    102  CB        60.2080   47.6590  117.4770 C.3   157  LEU157      0.0270
    103  CG        59.2670   47.8670  118.6720 C.3   157  LEU157      0.0019
    104  CD1       59.7760   48.9920  119.5640 C.3   157  LEU157      0.0001
    105  CD2       57.8880   48.2320  118.1680 C.3   157  LEU157      0.0001
    106  N         59.9680   43.2910  121.7110 N.3   162  LEU162     -0.1245
    107  CA        58.8620   42.3680  121.9340 C.3   162  LEU162      0.1561
    108  C         59.3310   40.9540  122.0930 C.2   162  LEU162      0.2260
    109  O         58.9160   40.2690  123.0420 O.2   162  LEU162     -0.2867
    110  CB        57.8620   42.4270  120.7850 C.3   162  LEU162      0.0270
    111  CG        56.7810   43.4920  120.7860 C.3   162  LEU162      0.0019
    112  CD1       57.4030   44.8610  120.5670 C.3   162  LEU162      0.0001
    113  CD2       55.7640   43.1630  119.7210 C.3   162  LEU162      0.0001
    114  N         45.4180   50.5930  117.7570 N.3   183  LEU183     -0.1245
    115  CA        44.9410   50.7610  119.1220 C.3   183  LEU183      0.1561
    116  C         43.5630   51.4180  119.0810 C.2   183  LEU183      0.2260
    117  O         42.9150   51.3580  120.1120 O.2   183  LEU183     -0.2867
    118  CB        45.8650   51.6820  119.9520 C.3   183  LEU183      0.0270
    119  CG        47.2810   51.2460  120.2140 C.3   183  LEU183      0.0019
    120  CD1       48.1410   52.4630  120.5030 C.3   183  LEU183      0.0001
    121  CD2       47.2740   50.2650  121.3270 C.3   183  LEU183      0.0001
    122  N         59.2050   46.1250  126.6540 N.3   214  ILE214     -0.1231
    123  CA        58.3150   47.0420  125.9660 C.3   214  ILE214      0.1692
    124  C         57.2400   47.4410  126.9500 C.2   214  ILE214      0.2592
    125  O         56.9170   48.6140  126.9930 O.2   214  ILE214     -0.2718
    126  CB        57.7200   46.3800  124.6330 C.3   214  ILE214      0.0266
    127  CG1       56.8240   47.4140  123.9820 C.3   214  ILE214      0.0019
    128  CG2       56.8730   45.1440  124.8490 C.3   214  ILE214      0.0020
    129  CD1       57.4620   48.0860  122.7730 C.3   214  ILE214      0.0001
    130  N         56.6170   46.5560  127.7260 N.am  215  PHE215     -0.1976
    131  CA        55.7100   46.9610  128.8000 C.3   215  PHE215      0.1639
    132  C         56.6610   46.9270  129.9880 C.2   215  PHE215      0.2290
    133  O         56.9130   45.9040  130.6370 O.2   215  PHE215     -0.2864
    134  CB        54.5700   45.9420  129.0170 C.3   215  PHE215      0.0560
    135  CG        53.3420   46.1620  128.1480 C.ar  215  PHE215     -0.0200
    136  CD1       53.4540   46.3860  126.7720 C.ar  215  PHE215     -0.0042
    137  CD2       52.0850   46.1410  128.7410 C.ar  215  PHE215     -0.0042
    138  CE1       52.3300   46.5880  125.9910 C.ar  215  PHE215     -0.0003
    139  CE2       50.9550   46.3470  127.9470 C.ar  215  PHE215     -0.0003
    140  CZ        51.0780   46.5680  126.5830 C.ar  215  PHE215     -0.0000
    141  N         58.7330   39.9340  126.8170 N.3   240  HIS240     -0.1241
    142  CA        57.3310   40.2710  126.6560 C.3   240  HIS240      0.1621
    143  C         56.4870   39.0570  126.2570 C.2   240  HIS240      0.2264
    144  O         55.3310   38.9170  126.6780 O.2   240  HIS240     -0.2867
    145  CB        57.1990   41.3370  125.6030 C.3   240  HIS240      0.0745
    146  CG        55.8060   41.9480  125.4690 C.ar  240  HIS240      0.0817
    147  ND1       55.0150   42.5180  126.4010 N.ar  240  HIS240     -0.2268
    148  CD2       55.1270   41.9990  124.2640 C.ar  240  HIS240      0.1154
    149  CE1       53.8990   42.9070  125.8130 C.ar  240  HIS240      0.1986
    150  NE2       53.9820   42.5900  124.5370 N.ar  240  HIS240     -0.2212
@<TRIPOS>BOND
     1    73    72    2
     2    72    71    1
     3    70    71    1
     4    71    74    1
     5    84    85    2
     6    84    83    1
     7    74    75    1
     8    93    92    2
     9    83    82    1
    10    83    86    1
    11    65    66    2
    12    65    64    1
    13    90    91    1
    14    92    91    1
    15    75    77   ar
    16    75    76   ar
    17    64    63    1
    18    64    67    1
    19    77    79   ar
    20    86    87    1
    21    91    94    1
    22    76    78   ar
    23    69    67    1
    24    67    68    1
    25    87    88    1
    26    79    80   ar
    27    94    95    1
    28    11    10    2
    29    78    80   ar
    30    10     9    1
    31    80    81    1
    32    95    96    1
    33    95    97    1
    34    88    89    1
    35     8     9    1
    36     9    12    1
    37    98    99    1
    38    61    60    2
    39    12    13    1
    40   102    99    1
    41   102   103    1
    42    60    59    1
    43    99   100    1
    44   114   115    1
    45    13    14   ar
    46    13    15   ar
    47    14    16   ar
    48    62    59    1
    49   100   101    2
    50   105   103    1
    51    15    17   ar
    52    16    17   ar
    53     4     3    2
    54    59    58    1
    55   103   104    1
    56   116   115    1
    57   116   117    2
    58   115   118    1
    59     3     2    1
    60   113   111    1
    61   118   119    1
    62   119   120    1
    63   119   121    1
    64   112   111    1
    65     7     5    1
    66   110   111    1
    67   110   107    1
    68     1     2    1
    69     2     5    1
    70    54    53    2
    71     5     6    1
    72   106   107    1
    73   107   108    1
    74    53    52    1
    75   108   109    2
    76    38    37    1
    77    48    50   ar
    78    48    46   ar
    79   129   127    1
    80    39    37    1
    81    50    49   ar
    82    52    55    1
    83    52    51    1
    84    46    45   ar
    85    37    36    1
    86    43    42    2
    87    55    56    1
    88   127   126    1
    89    23    22    1
    90   148   150   ar
    91   148   146   ar
    92    36    33    1
    93    51    42   am
    94    51    57    1
    95    22    19    1
    96   150   149   ar
    97    42    41    1
    98   126   128    1
    99   126   123    1
   100    49    47   ar
   101    56    57    1
   102    45    47   ar
   103    45    44    1
   104    33    34    1
   105    33    32    1
   106    31    29    1
   107    35    34    2
   108   146   145    1
   109   146   147   ar
   110    20    19    1
   111    20    21    2
   112   145   142    1
   113    44    41    1
   114    19    18    1
   115   149   147   ar
   116    41    40    1
   117   123   122    1
   118   123   124    1
   119   138   140   ar
   120   138   136   ar
   121    29    30    1
   122    29    28    1
   123   143   142    1
   124   143   144    2
   125    32    26   am
   126   140   139   ar
   127   142   141    1
   128   136   135   ar
   129   124   125    2
   130   124   130   am
   131    26    27    2
   132    26    25    1
   133    28    25    1
   134   130   131    1
   135   139   137   ar
   136    25    24    1
   137   135   137   ar
   138   135   134    1
   139   131   134    1
   140   131   132    1
   141   132   133    2
