@<TRIPOS>MOLECULE
tmp/1eb9B00.pdb
 120 114 0 0 0
SMALL
GASTEIGER

@<TRIPOS>ATOM
      1  N         54.1920   25.3280   99.7340 N.3    11  THR11      -0.1203
      2  CA        53.1980   24.6270   98.8980 C.3    11  THR11       0.1994
      3  C         51.7810   25.1900   99.0660 C.2    11  THR11       0.2618
      4  O         51.5500   25.9600  100.0240 O.2    11  THR11      -0.2717
      5  CB        53.1880   23.1240   99.2540 C.3    11  THR11       0.1784
      6  OG1       52.3360   22.5130   98.2970 O.3    11  THR11      -0.2211
      7  CG2       52.7000   22.8060  100.6580 C.3    11  THR11       0.0376
      8  N         50.8160   24.7680   98.2410 N.am   12  ILE12      -0.1965
      9  CA        49.4580   25.2740   98.3340 C.3    12  ILE12       0.1727
     10  C         48.9050   25.0870   99.7600 C.2    12  ILE12       0.2616
     11  O         49.3410   24.1720  100.5110 O.2    12  ILE12      -0.2715
     12  CB        48.5540   24.5580   97.2750 C.3    12  ILE12       0.0290
     13  CG1       48.4820   23.0530   97.5190 C.3    12  ILE12       0.0022
     14  CG2       49.0870   24.9320   95.8770 C.3    12  ILE12       0.0023
     15  CD1       47.3320   22.3940   96.7450 C.3    12  ILE12       0.0001
     16  N         48.0540   26.0440  100.1730 N.am   13  CYS13      -0.1954
     17  CA        47.4400   26.1180  101.5040 C.3    13  CYS13       0.1843
     18  C         48.3940   26.6210  102.5690 C.2    13  CYS13       0.2625
     19  O         47.9200   27.1230  103.5840 O.2    13  CYS13      -0.2714
     20  CB        46.9150   24.7630  102.0450 C.3    13  CYS13       0.0997
     21  SG        45.8040   23.8470  100.9330 S.3    13  CYS13      -0.0797
     22  N         49.7270   26.5550  102.4150 N.am   14  HIS14      -0.1973
     23  CA        50.6760   26.9530  103.4590 C.3    14  HIS14       0.1656
     24  C         51.1240   28.3970  103.1910 C.2    14  HIS14       0.2291
     25  O         50.4670   29.1620  102.4600 O.2    14  HIS14      -0.2864
     26  CB        51.8990   25.9350  103.4730 C.3    14  HIS14       0.0771
     27  CG        51.5330   24.4530  103.7350 C.ar   14  HIS14       0.0820
     28  ND1       50.6680   23.6420  103.0820 N.ar   14  HIS14      -0.2267
     29  CD2       52.0240   23.7030  104.7790 C.ar   14  HIS14       0.1154
     30  CE1       50.6170   22.4820  103.6790 C.ar   14  HIS14       0.1986
     31  NE2       51.4340   22.5330  104.6940 N.ar   14  HIS14      -0.2212
     32  N         56.7860   20.3910   98.0230 N.3    80  SER80      -0.1202
     33  CA        55.5450   19.7230   97.6120 C.3    80  SER80       0.2020
     34  C         54.9600   20.2210   96.2970 C.2    80  SER80       0.2619
     35  O         55.5230   19.8600   95.2720 O.2    80  SER80      -0.2717
     36  CB        54.5800   19.8760   98.7590 C.3    80  SER80       0.2103
     37  OG        53.4770   19.0100   98.6710 O.3    80  SER80      -0.2182
     38  N         53.8980   21.0310   96.2150 N.am   81  CYS81      -0.1969
     39  CA        53.4100   21.5330   94.9570 C.3    81  CYS81       0.1712
     40  C         54.2980   22.5820   94.3920 C.2    81  CYS81       0.2296
     41  O         54.1510   22.8420   93.1920 O.2    81  CYS81      -0.2864
     42  CB        52.0910   22.2180   95.0390 C.3    81  CYS81       0.0983
     43  SG        50.8570   20.9590   95.1900 S.3    81  CYS81      -0.0798
     44  N         50.5270   11.9790   91.4670 N.3   121  LEU121     -0.1231
     45  CA        50.4350   12.0870   92.9130 C.3   121  LEU121      0.1693
     46  C         49.0750   11.6270   93.3840 C.2   121  LEU121      0.2591
     47  O         48.9430   10.8430   94.3270 O.2   121  LEU121     -0.2718
     48  CB        50.6310   13.5340   93.3640 C.3   121  LEU121      0.0284
     49  CG        50.3510   13.9210   94.8250 C.3   121  LEU121      0.0019
     50  CD1       51.4150   13.3460   95.7380 C.3   121  LEU121      0.0001
     51  CD2       50.3140   15.4410   94.9350 C.3   121  LEU121      0.0001
     52  N         48.0390   12.1210   92.7270 N.am  122  LEU122     -0.1980
     53  CA        46.6970   11.8180   93.1760 C.3   122  LEU122      0.1596
     54  C         46.3700   10.3600   92.9440 C.2   122  LEU122      0.2287
     55  O         45.6130    9.7490   93.6710 O.2   122  LEU122     -0.2864
     56  CB        45.7330   12.7550   92.4590 C.3   122  LEU122      0.0297
     57  CG        45.9270   14.2590   92.7520 C.3   122  LEU122      0.0022
     58  CD1       44.8230   15.0430   92.0760 C.3   122  LEU122      0.0001
     59  CD2       45.8720   14.5390   94.2400 C.3   122  LEU122      0.0001
     60  N         40.5420   23.3320   98.4470 N.3   147  MET147     -0.1245
     61  CA        40.4050   22.4070   99.5410 C.3   147  MET147      0.1570
     62  C         40.8200   23.0880  100.8340 C.2   147  MET147      0.2261
     63  O         41.5620   24.0780  100.8340 O.2   147  MET147     -0.2867
     64  CB        41.2780   21.1970   99.2570 C.3   147  MET147      0.0387
     65  CG        42.7090   21.4600   99.6490 C.3   147  MET147      0.0595
     66  SD        43.8620   21.3830   98.3100 S.3   147  MET147     -0.1393
     67  CE        44.1750   19.6860   98.6690 C.3   147  MET147      0.0692
     68  N         42.6480   21.5480  104.0130 N.3   149  LEU149     -0.1245
     69  CA        43.2830   20.3110  104.4340 C.3   149  LEU149      0.1561
     70  C         42.7800   19.9020  105.8150 C.2   149  LEU149      0.2260
     71  O         42.6210   20.7460  106.7130 O.2   149  LEU149     -0.2867
     72  CB        44.8120   20.5020  104.4440 C.3   149  LEU149      0.0270
     73  CG        45.5680   20.7640  103.1270 C.3   149  LEU149      0.0019
     74  CD1       47.0150   21.0480  103.4590 C.3   149  LEU149      0.0001
     75  CD2       45.5170   19.5580  102.1900 C.3   149  LEU149      0.0001
     76  N         51.2470   14.9490  106.6110 N.3   158  LEU158     -0.1245
     77  CA        52.1370   16.0410  106.3050 C.3   158  LEU158      0.1561
     78  C         53.1450   16.3340  107.4010 C.2   158  LEU158      0.2260
     79  O         54.3540   16.3340  107.1370 O.2   158  LEU158     -0.2867
     80  CB        51.2930   17.2880  105.9920 C.3   158  LEU158      0.0270
     81  CG        50.5980   17.3650  104.5980 C.3   158  LEU158      0.0019
     82  CD1       49.3080   16.5610  104.5040 C.3   158  LEU158      0.0001
     83  CD2       50.2190   18.8120  104.3480 C.3   158  LEU158      0.0001
     84  N         44.9700   23.1090   93.3200 N.3   179  LEU179     -0.1245
     85  CA        45.9430   22.6120   92.3580 C.3   179  LEU179      0.1561
     86  C         45.6420   23.2440   91.0160 C.2   179  LEU179      0.2260
     87  O         46.5050   23.1360   90.1670 O.2   179  LEU179     -0.2867
     88  CB        45.8550   21.0880   92.1560 C.3   179  LEU179      0.0270
     89  CG        46.0550   20.1500   93.3340 C.3   179  LEU179      0.0019
     90  CD1       45.3470   18.7980   93.0530 C.3   179  LEU179      0.0001
     91  CD2       47.5540   20.0980   93.6300 C.3   179  LEU179      0.0001
     92  N         52.9860   11.2290  102.6680 N.3   210  ILE210     -0.1231
     93  CA        52.0010   11.7700  101.7690 C.3   210  ILE210      0.1692
     94  C         52.6380   11.7230  100.3660 C.2   210  ILE210      0.2592
     95  O         51.9030   11.3630   99.4400 O.2   210  ILE210     -0.2718
     96  CB        51.6140   13.2120  102.3010 C.3   210  ILE210      0.0266
     97  CG1       50.6650   13.8330  101.3490 C.3   210  ILE210      0.0019
     98  CG2       52.7620   14.1770  102.3990 C.3   210  ILE210      0.0020
     99  CD1       49.2510   13.3640  101.5700 C.3   210  ILE210      0.0001
    100  N         53.9190   12.1150  100.0920 N.am  211  PHE211     -0.1976
    101  CA        54.5910   11.8800   98.7970 C.3   211  PHE211      0.1639
    102  C         55.3770   10.5880   99.0790 C.2   211  PHE211      0.2290
    103  O         56.5290   10.5690   99.5390 O.2   211  PHE211     -0.2864
    104  CB        55.5810   13.0220   98.3930 C.3   211  PHE211      0.0560
    105  CG        54.9480   14.2500   97.7460 C.ar  211  PHE211     -0.0200
    106  CD1       53.7380   14.7960   98.2040 C.ar  211  PHE211     -0.0042
    107  CD2       55.5700   14.8280   96.6450 C.ar  211  PHE211     -0.0042
    108  CE1       53.1560   15.9040   97.5650 C.ar  211  PHE211     -0.0003
    109  CE2       54.9760   15.9390   96.0070 C.ar  211  PHE211     -0.0003
    110  CZ        53.7780   16.4810   96.4550 C.ar  211  PHE211     -0.0000
    111  N         57.3250   14.5110  105.6600 N.3   236  HIS236     -0.1241
    112  CA        57.1320   15.3890  104.5360 C.3   236  HIS236      0.1621
    113  C         57.7110   16.7830  104.7370 C.2   236  HIS236      0.2264
    114  O         58.1530   17.4090  103.7570 O.2   236  HIS236     -0.2867
    115  CB        55.6570   15.4940  104.2570 C.3   236  HIS236      0.0745
    116  CG        55.3160   16.2350  102.9540 C.ar  236  HIS236      0.0817
    117  ND1       55.7630   16.0350  101.7130 N.ar  236  HIS236     -0.2268
    118  CD2       54.3940   17.2630  102.8940 C.ar  236  HIS236      0.1154
    119  CE1       55.1550   16.8780  100.9210 C.ar  236  HIS236      0.1986
    120  NE2       54.3410   17.6050  101.6470 N.ar  236  HIS236     -0.2212
@<TRIPOS>BOND
     1    87    86    2
     2    86    85    1
     3    44    45    1
     4    58    57    1
     5    88    85    1
     6    88    89    1
     7    85    84    1
     8    56    57    1
     9    56    53    1
    10    52    53    1
    11    52    46   am
    12    57    59    1
    13    45    48    1
    14    45    46    1
    15    54    53    1
    16    54    55    2
    17    90    89    1
    18    41    40    2
    19    89    91    1
    20    48    49    1
    21    46    47    2
    22    40    39    1
    23    49    51    1
    24    49    50    1
    25    39    42    1
    26    39    38    1
    27    42    43    1
    28    35    34    2
    29    14    12    1
    30   109   110   ar
    31   109   107   ar
    32    38    34   am
    33    34    33    1
    34   110   108   ar
    35   107   105   ar
    36    15    13    1
    37    12    13    1
    38    12     9    1
    39   108   106   ar
    40    33    32    1
    41    33    36    1
    42   105   106   ar
    43   105   104    1
    44     8     9    1
    45     8     3   am
    46     6     5    1
    47    66    67    1
    48    66    65    1
    49     9    10    1
    50   104   101    1
    51    60    61    1
    52    37    36    1
    53   101   102    1
    54   101   100    1
    55     2     3    1
    56     2     5    1
    57     2     1    1
    58     3     4    2
    59   102   103    2
    60     5     7    1
    61    64    61    1
    62    64    65    1
    63    95    94    2
    64    61    62    1
    65    10    16   am
    66    10    11    2
    67   100    94   am
    68    16    17    1
    69    94    93    1
    70    63    62    2
    71   119   120   ar
    72   119   117   ar
    73    21    20    1
    74    97    99    1
    75    97    96    1
    76    17    20    1
    77    17    18    1
    78   120   118   ar
    79   117   116   ar
    80    93    96    1
    81    93    92    1
    82    75    73    1
    83    96    98    1
    84    22    18   am
    85    22    23    1
    86    25    24    2
    87    18    19    2
    88   118   116   ar
    89   116   115    1
    90    28    30   ar
    91    28    27   ar
    92    73    74    1
    93    73    72    1
    94    24    23    1
    95    23    26    1
    96    26    27    1
    97    30    31   ar
    98    27    29   ar
    99   114   113    2
   100    68    69    1
   101   115   112    1
   102    83    81    1
   103    69    72    1
   104    69    70    1
   105    82    81    1
   106   112   113    1
   107   112   111    1
   108    81    80    1
   109    31    29   ar
   110    70    71    2
   111    80    77    1
   112    77    76    1
   113    77    78    1
   114    79    78    2
