@<TRIPOS>MOLECULE
tmp/1ebtA00.pdb
 190 183 0 0 0
SMALL
GASTEIGER

@<TRIPOS>ATOM
      1  N          9.5890   -5.8830    8.7960 N.3    29  PHE29      -0.1241
      2  CA        10.5010   -6.3170    9.8650 C.3    29  PHE29       0.1605
      3  C         11.9440   -6.5210    9.4340 C.2    29  PHE29       0.2264
      4  O         12.9320   -6.1920   10.1300 O.2    29  PHE29      -0.2867
      5  CB         9.8970   -7.5250   10.6510 C.3    29  PHE29       0.0534
      6  CG         8.8750   -7.0950   11.7020 C.ar   29  PHE29      -0.0203
      7  CD1        9.2810   -6.7230   12.9880 C.ar   29  PHE29      -0.0042
      8  CD2        7.5150   -7.0020   11.4070 C.ar   29  PHE29      -0.0042
      9  CE1        8.3760   -6.3180   13.9780 C.ar   29  PHE29      -0.0003
     10  CE2        6.5760   -6.6120   12.3730 C.ar   29  PHE29      -0.0003
     11  CZ         7.0140   -6.2980   13.6680 C.ar   29  PHE29      -0.0000
     12  N         13.6880   -3.2380    9.1330 N.3    32  LEU32      -0.1245
     13  CA        13.8880   -2.7350   10.4890 C.3    32  LEU32       0.1561
     14  C         15.0770   -3.4380   11.1280 C.2    32  LEU32       0.2260
     15  O         16.0050   -2.7980   11.6590 O.2    32  LEU32      -0.2867
     16  CB        12.5520   -2.8810   11.2640 C.3    32  LEU32       0.0270
     17  CG        12.6940   -2.6500   12.7440 C.3    32  LEU32       0.0019
     18  CD1       13.0610   -1.1790   12.9840 C.3    32  LEU32       0.0001
     19  CD2       11.3720   -2.9820   13.4290 C.3    32  LEU32       0.0001
     20  N         17.6550   -3.5370   17.7810 N.3    39  VAL39      -0.1245
     21  CA        16.2320   -3.8250   17.7640 C.3    39  VAL39       0.1561
     22  C         16.0140   -5.3230   17.5830 C.2    39  VAL39       0.2260
     23  O         15.2400   -5.9410   18.3250 O.2    39  VAL39      -0.2867
     24  CB        15.4860   -3.0120   16.6820 C.3    39  VAL39       0.0252
     25  CG1       14.0930   -3.5830   16.4630 C.3    39  VAL39       0.0019
     26  CG2       15.3330   -1.5320   17.0880 C.3    39  VAL39       0.0019
     27  N         16.3050   -7.6150   20.7100 N.3    42  LYS42      -0.1231
     28  CA        15.2190   -7.7270   21.6330 C.3    42  LYS42       0.1693
     29  C         14.2340   -8.8390   21.2760 C.2    42  LYS42       0.2592
     30  O         13.3840   -9.2400   22.0550 O.2    42  LYS42      -0.2718
     31  CB        14.5050   -6.3820   21.8090 C.3    42  LYS42       0.0285
     32  CG        15.3950   -5.3870   22.5420 C.3    42  LYS42       0.0035
     33  CD        15.2120   -5.4860   24.0590 C.3    42  LYS42       0.0206
     34  CE        16.3700   -4.9120   24.8680 C.3    42  LYS42       0.1093
     35  NZ        16.2680   -5.2360   26.3050 N.3    42  LYS42      -0.1314
     36  N         14.3060   -9.3360   20.0650 N.am   43  PHE43      -0.1976
     37  CA        13.3810  -10.3850   19.6900 C.3    43  PHE43       0.1639
     38  C         14.0240  -11.8070   19.7940 C.2    43  PHE43       0.2290
     39  O         13.4620  -12.8390   19.3430 O.2    43  PHE43      -0.2864
     40  CB        12.9300  -10.0980   18.2190 C.3    43  PHE43       0.0560
     41  CG        11.9070   -8.9770   18.0580 C.ar   43  PHE43      -0.0200
     42  CD1       10.5470   -9.2360   18.2470 C.ar   43  PHE43      -0.0042
     43  CD2       12.2980   -7.6760   17.7030 C.ar   43  PHE43      -0.0042
     44  CE1        9.5750   -8.2340   18.1050 C.ar   43  PHE43      -0.0003
     45  CE2       11.3430   -6.6610   17.5490 C.ar   43  PHE43      -0.0003
     46  CZ         9.9810   -6.9430   17.7430 C.ar   43  PHE43      -0.0000
     47  N         11.7400  -14.5570   21.2140 N.3    46  LEU46      -0.1245
     48  CA        10.6970  -14.9940   20.2980 C.3    46  LEU46       0.1561
     49  C         11.2600  -15.9080   19.1770 C.2    46  LEU46       0.2260
     50  O         10.6630  -16.9120   18.7780 O.2    46  LEU46      -0.2867
     51  CB        10.0830  -13.7040   19.7000 C.3    46  LEU46       0.0270
     52  CG         8.7520  -13.7730   18.9970 C.3    46  LEU46       0.0019
     53  CD1        8.8910  -13.1510   17.6210 C.3    46  LEU46       0.0001
     54  CD2        8.1590  -15.1480   18.9480 C.3    46  LEU46       0.0001
     55  N          4.0320  -12.0410   14.6240 N.3    64  GLN64      -0.1245
     56  CA         4.4990  -10.7200   15.0400 C.3    64  GLN64       0.1566
     57  C          3.9680   -9.6380   14.0840 C.2    64  GLN64       0.2260
     58  O          3.5640   -8.5400   14.4830 O.2    64  GLN64      -0.2867
     59  CB         6.0100  -10.7190   15.3450 C.3    64  GLN64       0.0367
     60  CG         6.4750   -9.4710   16.1110 C.3    64  GLN64       0.0905
     61  CD         5.7750   -9.4190   17.4440 C.2    64  GLN64       0.2608
     62  OE1        5.3940   -8.3370   17.8990 O.2    64  GLN64      -0.2717
     63  NE2        5.5370  -10.5910   18.0460 N.am   64  GLN64      -0.0878
     64  N          0.4170   -8.7100   14.9160 N.3    67  SER67      -0.1202
     65  CA         0.2970   -7.9530   16.1540 C.3    67  SER67       0.2020
     66  C          0.5840   -6.4700   15.8870 C.2    67  SER67       0.2618
     67  O         -0.1440   -5.5890   16.3290 O.2    67  SER67      -0.2717
     68  CB         1.2980   -8.4560   17.1770 C.3    67  SER67       0.2103
     69  OG         0.7980   -9.6630   17.6960 O.3    67  SER67      -0.2182
     70  N          1.6520   -6.2390   15.1470 N.am   68  PHE68      -0.1975
     71  CA         2.0940   -4.8550   14.7920 C.3    68  PHE68       0.1639
     72  C          0.9840   -4.1300   14.0990 C.2    68  PHE68       0.2290
     73  O          0.5740   -3.0230   14.4360 O.2    68  PHE68      -0.2864
     74  CB         3.3720   -4.9020   13.9140 C.3    68  PHE68       0.0560
     75  CG         3.9980   -3.5460   13.6130 C.ar   68  PHE68      -0.0200
     76  CD1        3.5090   -2.7630   12.5710 C.ar   68  PHE68      -0.0042
     77  CD2        5.0900   -3.0760   14.3480 C.ar   68  PHE68      -0.0042
     78  CE1        4.1040   -1.5340   12.2690 C.ar   68  PHE68      -0.0003
     79  CE2        5.6800   -1.8390   14.0770 C.ar   68  PHE68      -0.0003
     80  CZ         5.1670   -1.0660   13.0380 C.ar   68  PHE68      -0.0000
     81  N         -2.2140   -2.7690   16.1740 N.3    71  LEU71      -0.1231
     82  CA        -2.1150   -1.5390   16.9930 C.3    71  LEU71       0.1693
     83  C         -2.1010   -0.2950   16.0670 C.2    71  LEU71       0.2591
     84  O         -2.7540    0.7360   16.3280 O.2    71  LEU71      -0.2718
     85  CB        -0.8440   -1.5400   17.8920 C.3    71  LEU71       0.0284
     86  CG        -0.6520   -0.2830   18.7640 C.3    71  LEU71       0.0019
     87  CD1       -1.9790    0.1120   19.4420 C.3    71  LEU71       0.0001
     88  CD2        0.4590   -0.5370   19.7890 C.3    71  LEU71       0.0001
     89  N         -1.3050   -0.4240   14.9960 N.am   72  VAL72      -0.1980
     90  CA        -1.2200    0.6810   14.0160 C.3    72  VAL72       0.1595
     91  C         -2.6120    0.9730   13.4800 C.2    72  VAL72       0.2287
     92  O         -3.0210    2.1270   13.3540 O.2    72  VAL72      -0.2864
     93  CB        -0.2290    0.3730   12.8740 C.3    72  VAL72       0.0276
     94  CG1       -0.2870    1.4970   11.8570 C.3    72  VAL72       0.0022
     95  CG2        1.1980    0.2850   13.4120 C.3    72  VAL72       0.0022
     96  N         -4.4510    3.0980   15.9830 N.3    75  TRP75      -0.1241
     97  CA        -4.0530    4.4730   16.0980 C.3    75  TRP75       0.1605
     98  C         -4.6250    5.2690   14.9120 C.2    75  TRP75       0.2264
     99  O         -5.1670    6.3800   15.0270 O.2    75  TRP75      -0.2867
    100  CB        -2.5460    4.5170   16.0750 C.3    75  TRP75       0.0550
    101  CG        -1.8730    4.1640   17.3420 C.ar   75  TRP75       0.0003
    102  CD1       -2.3710    4.3590   18.5950 C.ar   75  TRP75       0.0946
    103  CD2       -0.5650    3.6540   17.5050 C.ar   75  TRP75       0.0152
    104  NE1       -1.4260    4.0020   19.5260 N.ar   75  TRP75      -0.2442
    105  CE2       -0.3240    3.5470   18.8890 C.ar   75  TRP75       0.0810
    106  CE3        0.4740    3.3370   16.6280 C.ar   75  TRP75       0.0012
    107  CZ2        0.8770    3.0910   19.3970 C.ar   75  TRP75       0.0191
    108  CZ3        1.6940    2.8980   17.1120 C.ar   75  TRP75       0.0001
    109  CH2        1.8850    2.7390   18.4880 C.ar   75  TRP75       0.0015
    110  N          0.7740    0.4630   25.4480 N.3    92  PHE92      -0.1241
    111  CA         1.8710    0.1270   24.5540 C.3    92  PHE92       0.1605
    112  C          3.1890    0.4410   25.2140 C.2    92  PHE92       0.2264
    113  O          4.1420   -0.3550   25.2070 O.2    92  PHE92      -0.2867
    114  CB         1.7240    0.9670   23.2560 C.3    92  PHE92       0.0534
    115  CG         2.9230    0.9600   22.3460 C.ar   92  PHE92      -0.0203
    116  CD1        3.3330   -0.1870   21.6490 C.ar   92  PHE92      -0.0042
    117  CD2        3.6270    2.1470   22.1040 C.ar   92  PHE92      -0.0042
    118  CE1        4.4360   -0.1550   20.7910 C.ar   92  PHE92      -0.0003
    119  CE2        4.7180    2.2090   21.2250 C.ar   92  PHE92      -0.0003
    120  CZ         5.1240    1.0410   20.5630 C.ar   92  PHE92      -0.0000
    121  N          4.0100   -1.8030   28.2540 N.3    95  ASN95      -0.1225
    122  CA         4.4770   -3.1300   27.8220 C.3    95  ASN95       0.1785
    123  C          5.9060   -3.1520   27.2970 C.2    95  ASN95       0.2597
    124  O          6.6920   -4.0480   27.6180 O.2    95  ASN95      -0.2718
    125  CB         3.5160   -3.7820   26.8050 C.3    95  ASN95       0.1169
    126  CG         2.2600   -4.2150   27.5000 C.2    95  ASN95       0.2627
    127  OD1        1.2070   -4.3780   26.8850 O.2    95  ASN95      -0.2716
    128  ND2        2.3690   -4.3520   28.8110 N.am   95  ASN95      -0.0877
    129  N          6.2500   -2.1780   26.4440 N.am   96  HIS96      -0.1975
    130  CA         7.5850   -2.1400   25.8500 C.3    96  HIS96       0.1656
    131  C          8.6700   -1.7640   26.8480 C.2    96  HIS96       0.2291
    132  O          9.7940   -2.2960   26.8650 O.2    96  HIS96      -0.2864
    133  CB         7.5380   -1.2300   24.5900 C.3    96  HIS96       0.0771
    134  CG         6.8800   -1.9830   23.4440 C.ar   96  HIS96       0.0820
    135  ND1        5.5020   -2.1660   23.3880 N.ar   96  HIS96      -0.2267
    136  CD2        7.4680   -2.6270   22.3500 C.ar   96  HIS96       0.1154
    137  CE1        5.2960   -2.9310   22.2630 C.ar   96  HIS96       0.1986
    138  NE2        6.4410   -3.1700   21.6460 N.ar   96  HIS96      -0.2212
    139  N         10.2380   -4.3580   28.7760 N.3    99  ARG99      -0.1245
    140  CA        11.1720   -5.2610   28.1450 C.3    99  ARG99       0.1563
    141  C         12.5260   -4.6280   28.0430 C.2    99  ARG99       0.2260
    142  O         13.3690   -5.1800   27.3730 O.2    99  ARG99      -0.2867
    143  CB        10.7370   -5.6420   26.7340 C.3    99  ARG99       0.0307
    144  CG         9.3630   -6.3080   26.7690 C.3    99  ARG99       0.0489
    145  CD         8.7190   -6.4910   25.4100 C.3    99  ARG99       0.2205
    146  NE         7.5380   -7.3030   25.5280 N.pl3  99  ARG99      -0.0865
    147  CZ         6.3540   -6.9990   25.0510 C.cat  99  ARG99       0.5346
    148  NH1        6.1080   -5.8630   24.3650 N.pl3  99  ARG99       0.1354
    149  NH2        5.3980   -7.9020   25.2770 N.pl3  99  ARG99       0.1354
    150  N         13.1610   -1.8140   26.4640 N.3   101  ILE101     -0.1245
    151  CA        13.3070   -1.1090   25.1860 C.3   101  ILE101      0.1561
    152  C         13.3040    0.4090   25.4210 C.2   101  ILE101      0.2260
    153  O         12.5150    0.8710   26.2730 O.2   101  ILE101     -0.2867
    154  CB        12.1000   -1.4890   24.3390 C.3   101  ILE101      0.0252
    155  CG1       12.2810   -2.9340   23.8510 C.3   101  ILE101      0.0019
    156  CG2       11.9870   -0.5560   23.1380 C.3   101  ILE101      0.0019
    157  CD1       10.9710   -3.4740   23.3140 C.3   101  ILE101      0.0001
    158  N         14.6340    3.6270   20.6150 N.3   105  GLN105     -0.1231
    159  CA        14.3600    2.4830   19.7370 C.3   105  GLN105      0.1698
    160  C         12.9680    2.5830   19.1280 C.2   105  GLN105      0.2592
    161  O         12.7600    2.2850   17.9690 O.2   105  GLN105     -0.2718
    162  CB        14.5430    1.1610   20.4960 C.3   105  GLN105      0.0381
    163  CG        16.0430    1.0170   20.8820 C.3   105  GLN105      0.0905
    164  CD        16.3030   -0.1980   21.7880 C.2   105  GLN105      0.2608
    165  OE1       15.5750   -0.4340   22.7700 O.2   105  GLN105     -0.2717
    166  NE2       17.2790   -1.0430   21.4140 N.am  105  GLN105     -0.0878
    167  N         11.9770    3.0120   19.8960 N.am  106  LEU106     -0.1980
    168  CA        10.6500    3.1290   19.3370 C.3   106  LEU106      0.1596
    169  C         10.6700    4.1390   18.2100 C.2   106  LEU106      0.2287
    170  O         10.0420    3.9960   17.1440 O.2   106  LEU106     -0.2864
    171  CB         9.6140    3.5800   20.3910 C.3   106  LEU106      0.0297
    172  CG         9.4560    2.5740   21.5420 C.3   106  LEU106      0.0022
    173  CD1        8.5050    3.1150   22.6150 C.3   106  LEU106      0.0001
    174  CD2        8.9800    1.2290   21.0140 C.3   106  LEU106      0.0001
    175  N         11.9590    2.8380   14.9820 N.3   109  ALA109     -0.1231
    176  CA        10.9530    2.0670   14.2570 C.3   109  ALA109      0.1694
    177  C          9.9900    2.9210   13.4130 C.2   109  ALA109      0.2592
    178  O          9.6310    2.6210   12.2700 O.2   109  ALA109     -0.2718
    179  CB        10.2050    1.0970   15.1960 C.3   109  ALA109      0.0304
    180  N          9.5130    3.9830   14.0380 N.am  110  PHE110     -0.1976
    181  CA         8.6080    4.8260   13.3420 C.3   110  PHE110      0.1639
    182  C          9.3330    5.4210   12.1560 C.2   110  PHE110      0.2290
    183  O          8.7000    5.6140   11.1170 O.2   110  PHE110     -0.2864
    184  CB         8.1440    5.9670   14.2260 C.3   110  PHE110      0.0560
    185  CG         6.9680    5.6110   15.1200 C.ar  110  PHE110     -0.0200
    186  CD1        5.7160    5.3200   14.5820 C.ar  110  PHE110     -0.0042
    187  CD2        7.0970    5.6730   16.5100 C.ar  110  PHE110     -0.0042
    188  CE1        4.6240    4.9970   15.3910 C.ar  110  PHE110     -0.0003
    189  CE2        6.0190    5.3630   17.3350 C.ar  110  PHE110     -0.0003
    190  CZ         4.7840    5.0250   16.7770 C.ar  110  PHE110     -0.0000
@<TRIPOS>BOND
     1     1     2    1
     2    12    13    1
     3     3     2    1
     4     3     4    2
     5     2     5    1
     6    13    14    1
     7    13    16    1
     8     5     6    1
     9   183   182    2
    10    14    15    2
    11    16    17    1
    12     8     6   ar
    13     8    10   ar
    14     6     7   ar
    15    94    93    1
    16   182   181    1
    17    78    76   ar
    18    78    80   ar
    19   178   177    2
    20    10    11   ar
    21    76    75   ar
    22    17    18    1
    23    17    19    1
    24    93    95    1
    25    93    90    1
    26     7     9   ar
    27    80    79   ar
    28   181   180    1
    29   181   184    1
    30    92    91    2
    31   177   180   am
    32   177   176    1
    33    91    90    1
    34    75    74    1
    35    75    77   ar
    36    11     9   ar
    37    74    71    1
    38    90    89    1
    39    79    77   ar
    40    57    58    2
    41    57    56    1
    42    72    73    2
    43    72    71    1
    44   184   185    1
    45   176   175    1
    46   176   179    1
    47   186   185   ar
    48   186   188   ar
    49    55    56    1
    50    71    70    1
    51    98    99    2
    52    98    97    1
    53    64    65    1
    54    89    83   am
    55    56    59    1
    56   185   187   ar
    57    70    66   am
    58    59    60    1
    59   188   190   ar
    60    66    65    1
    61    66    67    2
    62    96    97    1
    63    83    84    2
    64    83    82    1
    65   100    97    1
    66   100   101    1
    67    60    61    1
    68    65    68    1
    69    81    82    1
    70    25    24    1
    71   187   189   ar
    72   106   108   ar
    73   106   103   ar
    74    24    26    1
    75    24    21    1
    76   190   189   ar
    77    82    85    1
    78   108   109   ar
    79   170   169    2
    80    68    69    1
    81   101   103   ar
    82   101   102   ar
    83    61    62    2
    84    61    63   am
    85   103   105   ar
    86    45    43   ar
    87    45    46   ar
    88    22    21    1
    89    22    23    2
    90    53    52    1
    91    43    41   ar
    92    46    44   ar
    93    21    20    1
    94    85    86    1
    95   161   160    2
    96    41    40    1
    97    41    42   ar
    98    44    42   ar
    99   169   168    1
   100    40    37    1
   101   109   107   ar
   102   102   104   ar
   103    86    87    1
   104    86    88    1
   105    50    49    2
   106   105   107   ar
   107   105   104   ar
   108    54    52    1
   109    52    51    1
   110   160   159    1
   111   160   167   am
   112    49    48    1
   113   168   167    1
   114   168   171    1
   115    39    38    2
   116    37    38    1
   117    37    36    1
   118    51    48    1
   119   159   162    1
   120   159   158    1
   121    36    29   am
   122    48    47    1
   123   171   172    1
   124   162   163    1
   125   120   118   ar
   126   120   119   ar
   127    27    28    1
   128   118   116   ar
   129   163   164    1
   130   174   172    1
   131   119   117   ar
   132    29    28    1
   133    29    30    2
   134   166   164   am
   135   172   173    1
   136    28    31    1
   137   138   137   ar
   138   138   136   ar
   139   116   115   ar
   140   164   165    2
   141    31    32    1
   142   117   115   ar
   143   137   135   ar
   144   115   114    1
   145   136   134   ar
   146    32    33    1
   147   156   154    1
   148   114   111    1
   149   157   155    1
   150   135   134   ar
   151   134   133    1
   152   155   154    1
   153    33    34    1
   154   154   151    1
   155   148   147    1
   156   111   112    1
   157   111   110    1
   158   133   130    1
   159    34    35    1
   160   147   149    1
   161   147   146    2
   162   151   152    1
   163   151   150    1
   164   113   112    2
   165   145   146    1
   166   145   144    1
   167   152   153    2
   168   130   129    1
   169   130   131    1
   170   129   123   am
   171   143   144    1
   172   143   140    1
   173   125   126    1
   174   125   122    1
   175   131   132    2
   176   127   126    2
   177   123   124    2
   178   123   122    1
   179   142   141    2
   180   126   128   am
   181   122   121    1
   182   141   140    1
   183   140   139    1
