@<TRIPOS>MOLECULE
tmp/1ebuD00.pdb
 183 173 0 0 0
SMALL
GASTEIGER

@<TRIPOS>ATOM
      1  N         50.6620   16.4870   75.0360 N.3    10  ILE10      -0.1231
      2  CA        49.8280   17.5010   75.6680 C.3    10  ILE10       0.1692
      3  C         48.7310   17.8480   74.6770 C.2    10  ILE10       0.2593
      4  O         49.0170   18.1830   73.5250 O.2    10  ILE10      -0.2718
      5  CB        50.5760   18.8040   75.9600 C.3    10  ILE10       0.0266
      6  CG1       51.8540   18.5190   76.7450 C.3    10  ILE10       0.0019
      7  CG2       49.6520   19.7510   76.7390 C.3    10  ILE10       0.0020
      8  CD1       52.7010   19.7470   76.9800 C.3    10  ILE10       0.0001
      9  N         47.4810   17.7720   75.1190 N.am   11  GLY11      -0.1942
     10  CA        46.3820   18.0960   74.2310 C.3    11  GLY11       0.2014
     11  C         45.6780   16.8610   73.7200 C.2    11  GLY11       0.2639
     12  O         46.2720   16.0300   73.0230 O.2    11  GLY11      -0.2714
     13  N         44.3990   16.7460   74.0570 N.am   12  ALA12      -0.1963
     14  CA        43.6100   15.5950   73.6460 C.3    12  ALA12       0.1728
     15  C         42.2940   16.0080   73.0090 C.2    12  ALA12       0.2617
     16  O         41.2410   15.4470   73.2990 O.2    12  ALA12      -0.2715
     17  CB        43.3550   14.6840   74.8480 C.3    12  ALA12       0.0334
     18  N         42.3550   17.0030   72.1400 N.am   13  GLY13      -0.1940
     19  CA        41.1470   17.4380   71.4780 C.3    13  GLY13       0.2014
     20  C         40.9890   16.7620   70.1290 C.2    13  GLY13       0.2639
     21  O         41.5350   15.6900   69.8810 O.2    13  GLY13      -0.2714
     22  N         40.2380   17.4060   69.2510 N.am   14  VAL14      -0.1963
     23  CA        39.9870   16.8950   67.9140 C.3    14  VAL14       0.1727
     24  C         41.2510   16.3180   67.2690 C.2    14  VAL14       0.2616
     25  O         41.3330   15.1130   67.0160 O.2    14  VAL14      -0.2715
     26  CB        39.4280   18.0210   67.0330 C.3    14  VAL14       0.0290
     27  CG1       38.9950   17.4770   65.6840 C.3    14  VAL14       0.0023
     28  CG2       38.2830   18.6820   67.7570 C.3    14  VAL14       0.0023
     29  N         42.2270   17.1900   67.0150 N.am   15  VAL15      -0.1963
     30  CA        43.4880   16.8010   66.3990 C.3    15  VAL15       0.1727
     31  C         44.3060   15.8810   67.2990 C.2    15  VAL15       0.2616
     32  O         44.8250   14.8570   66.8460 O.2    15  VAL15      -0.2715
     33  CB        44.3170   18.0470   66.0490 C.3    15  VAL15       0.0290
     34  CG1       45.6510   17.6470   65.4620 C.3    15  VAL15       0.0023
     35  CG2       43.5570   18.8910   65.0570 C.3    15  VAL15       0.0023
     36  N         44.4200   16.2460   68.5710 N.am   16  GLY16      -0.1955
     37  CA        45.1740   15.4250   69.4990 C.3    16  GLY16       0.1869
     38  C         44.6270   14.0120   69.5970 C.2    16  GLY16       0.2309
     39  O         45.3830   13.0460   69.6780 O.2    16  GLY16      -0.2863
     40  N         48.6290   14.6850   78.8500 N.3    38  ALA38      -0.1231
     41  CA        48.0280   15.6580   79.7430 C.3    38  ALA38       0.1694
     42  C         47.0920   16.6870   79.1200 C.2    38  ALA38       0.2592
     43  O         47.4030   17.2860   78.0820 O.2    38  ALA38      -0.2718
     44  CB        49.1440   16.3840   80.5020 C.3    38  ALA38       0.0304
     45  N         45.9500   16.8770   79.7760 N.am   39  GLU39      -0.1966
     46  CA        44.9500   17.8620   79.3910 C.3    39  GLU39       0.1733
     47  C         45.1900   18.9180   80.4640 C.2    39  GLU39       0.2616
     48  O         46.1180   18.7810   81.2500 O.2    39  GLU39      -0.2715
     49  CB        43.5360   17.3000   79.5470 C.3    39  GLU39       0.0429
     50  CG        43.0330   16.3660   78.4640 C.3    39  GLU39       0.1163
     51  CD        41.5330   16.1550   78.5860 C.2    39  GLU39       0.3649
     52  OE1       41.0890   15.5480   79.5860 O.co2  39  GLU39      -0.2457
     53  OE2       40.7930   16.6120   77.6880 O.co2  39  GLU39      -0.2457
     54  N         44.3510   19.9410   80.5480 N.am   40  ALA40      -0.1977
     55  CA        44.5620   20.9810   81.5560 C.3    40  ALA40       0.1597
     56  C         44.3320   20.5750   83.0160 C.2    40  ALA40       0.2287
     57  O         45.1230   20.9260   83.9050 O.2    40  ALA40      -0.2864
     58  CB        43.7010   22.1800   81.2390 C.3    40  ALA40       0.0319
     59  N         47.5760   17.9240   86.4240 N.3    69  THR69      -0.1218
     60  CA        48.5980   18.2190   85.4160 C.3    69  THR69       0.1862
     61  C         49.7510   19.0590   85.9640 C.2    69  THR69       0.2287
     62  O         49.5390   20.1190   86.5510 O.2    69  THR69      -0.2866
     63  CB        47.9820   18.9650   84.2060 C.3    69  THR69       0.1770
     64  OG1       46.8700   18.2230   83.6900 O.3    69  THR69      -0.2211
     65  CG2       49.0160   19.1460   83.1060 C.3    69  THR69       0.0375
     66  N         54.3780   23.4380   83.8760 N.3    72  LEU72      -0.1245
     67  CA        55.3840   23.2390   82.8470 C.3    72  LEU72       0.1561
     68  C         56.8310   23.1490   83.3490 C.2    72  LEU72       0.2260
     69  O         57.5570   22.2250   82.9540 O.2    72  LEU72      -0.2867
     70  CB        55.2220   24.2960   81.7470 C.3    72  LEU72       0.0270
     71  CG        53.9120   24.0900   80.9650 C.3    72  LEU72       0.0019
     72  CD1       53.9320   24.9270   79.6970 C.3    72  LEU72       0.0001
     73  CD2       53.7300   22.6130   80.5920 C.3    72  LEU72       0.0001
     74  N         49.6480   19.4180   71.2290 N.3    91  ASN91      -0.1225
     75  CA        48.4980   19.4950   70.3330 C.3    91  ASN91       0.1785
     76  C         47.4670   20.5230   70.7750 C.2    91  ASN91       0.2598
     77  O         46.2630   20.3140   70.6810 O.2    91  ASN91      -0.2718
     78  CB        47.8540   18.1160   70.2050 C.3    91  ASN91       0.1169
     79  CG        48.7590   17.1330   69.5250 C.2    91  ASN91       0.2627
     80  OD1       49.2500   17.3930   68.4280 O.2    91  ASN91      -0.2716
     81  ND2       48.9960   15.9970   70.1650 N.am   91  ASN91      -0.0877
     82  N         47.9600   21.6550   71.2440 N.am   92  THR92      -0.1939
     83  CA        47.0940   22.7180   71.7090 C.3    92  THR92       0.2028
     84  C         47.3420   23.9790   70.9010 C.2    92  THR92       0.2643
     85  O         48.2370   24.0290   70.0550 O.2    92  THR92      -0.2714
     86  CB        47.4010   23.0600   73.1660 C.3    92  THR92       0.1808
     87  OG1       48.5110   23.9740   73.2090 O.3    92  THR92      -0.2208
     88  CG2       47.7480   21.7850   73.9500 C.3    92  THR92       0.0379
     89  N         46.5380   24.9970   71.1760 N.am   93  SER93      -0.1935
     90  CA        46.6840   26.2920   70.5330 C.3    93  SER93       0.2055
     91  C         47.0100   27.2390   71.6690 C.2    93  SER93       0.2643
     92  O         46.7860   28.4380   71.5820 O.2    93  SER93      -0.2714
     93  CB        45.3890   26.7190   69.8300 C.3    93  SER93       0.2130
     94  OG        44.2760   25.9620   70.2720 O.3    93  SER93      -0.2179
     95  N         47.5490   26.6740   72.7410 N.am   94  SER94      -0.1949
     96  CA        47.9130   27.4470   73.9250 C.3    94  SER94       0.1924
     97  C         49.1550   28.3220   73.7430 C.2    94  SER94       0.2314
     98  O         50.2390   27.8380   73.3990 O.2    94  SER94      -0.2863
     99  CB        48.1350   26.5080   75.1170 C.3    94  SER94       0.2116
    100  OG        48.6160   27.2210   76.2450 O.3    94  SER94      -0.2180
    101  N         50.3430   29.9540   76.1840 N.3    96  TYR96      -0.1227
    102  CA        51.0330   29.7000   77.4390 C.3    96  TYR96       0.1736
    103  C         52.1150   28.6560   77.2200 C.2    96  TYR96       0.2595
    104  O         53.2920   28.9010   77.4670 O.2    96  TYR96      -0.2718
    105  CB        50.0440   29.1880   78.4810 C.3    96  TYR96       0.0548
    106  CG        50.7010   28.8590   79.7840 C.ar   96  TYR96      -0.0200
    107  CD1       51.1020   29.8650   80.6480 C.ar   96  TYR96      -0.0009
    108  CD2       50.9940   27.5400   80.1240 C.ar   96  TYR96      -0.0009
    109  CE1       51.7810   29.5680   81.8210 C.ar   96  TYR96       0.0417
    110  CE2       51.6780   27.2340   81.2920 C.ar   96  TYR96       0.0417
    111  CZ        52.0690   28.2570   82.1350 C.ar   96  TYR96       0.1957
    112  OH        52.7580   27.9730   83.2880 O.3    96  TYR96      -0.2866
    113  N         51.7030   27.4840   76.7500 N.am   97  ILE97      -0.1980
    114  CA        52.6380   26.3940   76.4970 C.3    97  ILE97       0.1595
    115  C         53.6860   26.8410   75.4840 C.2    97  ILE97       0.2287
    116  O         54.8810   26.5790   75.6480 O.2    97  ILE97      -0.2864
    117  CB        51.9130   25.1460   75.9520 C.3    97  ILE97       0.0276
    118  CG1       50.7310   24.7950   76.8580 C.3    97  ILE97       0.0022
    119  CG2       52.8740   23.9710   75.9110 C.3    97  ILE97       0.0022
    120  CD1       49.9880   23.5310   76.4580 C.3    97  ILE97       0.0001
    121  N         51.2730   21.1600   65.9890 N.3   114  PRO114     -0.2102
    122  CA        50.3870   21.8140   65.0270 C.3   114  PRO114      0.1504
    123  C         50.0510   23.2200   65.5840 C.2   114  PRO114      0.2576
    124  O         49.2760   23.9590   64.9780 O.2   114  PRO114     -0.2718
    125  CB        49.1720   20.8930   65.0120 C.3   114  PRO114      0.0282
    126  CG        49.0550   20.5280   66.4470 C.3   114  PRO114      0.0208
    127  CD        50.4920   20.2880   66.8890 C.3   114  PRO114      0.0893
    128  N         50.6330   23.5720   66.7380 N.am  115  ASN115     -0.1961
    129  CA        50.3990   24.8750   67.3600 C.3   115  ASN115      0.1819
    130  C         51.2200   25.9590   66.6810 C.2   115  ASN115      0.2621
    131  O         52.4420   25.8870   66.6430 O.2   115  ASN115     -0.2715
    132  CB        50.7360   24.8400   68.8610 C.3   115  ASN115      0.1195
    133  CG        50.2960   26.1150   69.6030 C.2   115  ASN115      0.2630
    134  OD1       50.3090   26.1660   70.8310 O.2   115  ASN115     -0.2716
    135  ND2       49.9140   27.1400   68.8540 N.am  115  ASN115     -0.0877
    136  N         50.5290   26.9760   66.1730 N.am  116  LYS116     -0.1977
    137  CA        51.1470   28.0780   65.4520 C.3   116  LYS116      0.1596
    138  C         51.7530   29.1850   66.3080 C.2   116  LYS116      0.2287
    139  O         52.6390   29.9090   65.8490 O.2   116  LYS116     -0.2864
    140  CB        50.1150   28.7080   64.5320 C.3   116  LYS116      0.0298
    141  CG        49.3430   27.7260   63.6810 C.3   116  LYS116      0.0038
    142  CD        48.0770   28.3800   63.1420 C.3   116  LYS116      0.0206
    143  CE        46.8220   27.6590   63.6370 C.3   116  LYS116      0.1093
    144  NZ        46.7820   26.2320   63.1730 N.3   116  LYS116     -0.1314
    145  N         52.5250   20.7000   60.7380 N.3   143  ALA143     -0.1245
    146  CA        51.0790   20.9340   60.7940 C.3   143  ALA143      0.1562
    147  C         50.6580   22.3810   60.9980 C.2   143  ALA143      0.2260
    148  O         49.4740   22.6840   61.1280 O.2   143  ALA143     -0.2867
    149  CB        50.4500   20.0630   61.8690 C.3   143  ALA143      0.0290
    150  N         48.4750   22.0640   57.1140 N.3   147  ALA147     -0.1245
    151  CA        48.3110   20.8660   57.9020 C.3   147  ALA147      0.1562
    152  C         49.3290   19.7910   57.5000 C.2   147  ALA147      0.2260
    153  O         50.5300   20.0160   57.5800 O.2   147  ALA147     -0.2867
    154  CB        46.8860   20.3520   57.7530 C.3   147  ALA147      0.0290
    155  N         49.9830   31.9350   59.6710 N.3   222  LYS222     -0.1245
    156  CA        50.6320   31.0010   58.7560 C.3   222  LYS222      0.1561
    157  C         51.5740   31.7200   57.8010 C.2   222  LYS222      0.2260
    158  O         52.6660   31.2190   57.5200 O.2   222  LYS222     -0.2867
    159  CB        49.5930   30.1930   57.9740 C.3   222  LYS222      0.0271
    160  CG        48.7940   29.2100   58.8290 C.3   222  LYS222      0.0035
    161  CD        47.7700   28.4650   57.9870 C.3   222  LYS222      0.0206
    162  CE        47.0070   27.4060   58.7910 C.3   222  LYS222      0.1093
    163  NZ        45.9670   27.9490   59.7030 N.3   222  LYS222     -0.1314
    164  N         43.6560   21.3510   54.4010 N.3   337  GLY337     -0.1210
    165  CA        44.4850   22.1090   55.3210 C.3   337  GLY337      0.1956
    166  C         43.8350   22.0930   56.6920 C.2   337  GLY337      0.2612
    167  O         44.2070   22.8450   57.5980 O.2   337  GLY337     -0.2717
    168  N         42.8440   21.2210   56.8360 N.am  338  ALA338     -0.1965
    169  CA        42.1270   21.0730   58.0880 C.3   338  ALA338      0.1728
    170  C         41.5210   19.6660   58.1540 C.2   338  ALA338      0.2616
    171  O         41.3900   18.9900   57.1240 O.2   338  ALA338     -0.2715
    172  CB        41.0410   22.1410   58.1900 C.3   338  ALA338      0.0334
    173  N         41.1580   19.2390   59.3640 N.am  339  GLY339     -0.1955
    174  CA        40.5920   17.9150   59.5710 C.3   339  GLY339      0.1869
    175  C         41.4560   17.2090   60.6050 C.2   339  GLY339      0.2309
    176  O         42.6770   17.3360   60.5750 O.2   339  GLY339     -0.2863
    177  N         45.4900   16.2640   59.7950 N.3   343  THR343     -0.1218
    178  CA        46.4100   17.1350   60.5420 C.3   343  THR343      0.1862
    179  C         47.3350   16.3700   61.4720 C.2   343  THR343      0.2287
    180  O         48.5380   16.6460   61.5410 O.2   343  THR343     -0.2866
    181  CB        45.6560   18.1680   61.3770 C.3   343  THR343      0.1770
    182  OG1       44.8550   18.9820   60.5150 O.3   343  THR343     -0.2211
    183  CG2       46.6350   19.0500   62.1310 C.3   343  THR343      0.0375
@<TRIPOS>BOND
     1   164   165    1
     2   165   166    1
     3   166   168   am
     4   166   167    2
     5   168   169    1
     6   150   151    1
     7   171   170    2
     8   152   153    2
     9   152   151    1
    10   158   157    2
    11   154   151    1
    12   157   156    1
    13   159   156    1
    14   159   160    1
    15   161   162    1
    16   161   160    1
    17   169   170    1
    18   169   172    1
    19   170   173   am
    20   156   155    1
    21   162   163    1
    22   173   174    1
    23   174   175    1
    24   177   178    1
    25   182   181    1
    26   178   181    1
    27   178   179    1
    28   176   175    2
    29   145   146    1
    30   146   147    1
    31   146   149    1
    32   147   148    2
    33   181   183    1
    34   179   180    2
    35   142   143    1
    36   142   141    1
    37   144   143    1
    38   141   140    1
    39   140   137    1
    40   124   123    2
    41   125   122    1
    42   125   126    1
    43   122   123    1
    44   122   121    1
    45    35    33    1
    46   137   136    1
    47   137   138    1
    48    34    33    1
    49   123   128   am
    50    27    26    1
    51   139   138    2
    52   121   127    1
    53    33    30    1
    54   136   130   am
    55    30    29    1
    56    30    31    1
    57   126   127    1
    58   131   130    2
    59   130   129    1
    60   128   129    1
    61    32    31    2
    62    29    24   am
    63    25    24    2
    64    26    28    1
    65    26    23    1
    66    24    23    1
    67    31    36   am
    68   129   132    1
    69    23    22    1
    70    80    79    2
    71    36    37    1
    72   135   133   am
    73   132   133    1
    74    22    20   am
    75    37    38    1
    76    79    81   am
    77    79    78    1
    78    38    39    2
    79   133   134    2
    80    93    94    1
    81    93    90    1
    82    21    20    2
    83    85    84    2
    84    20    19    1
    85    78    75    1
    86    75    76    1
    87    75    74    1
    88    90    89    1
    89    90    91    1
    90    77    76    2
    91    76    82   am
    92    84    89   am
    93    84    83    1
    94    82    83    1
    95    19    18    1
    96    92    91    2
    97    91    95   am
    98    83    86    1
    99    18    15   am
   100    95    96    1
   101    15    16    2
   102    15    14    1
   103    12    11    2
   104    86    87    1
   105    86    88    1
   106    98    97    2
   107     4     3    2
   108    14    13    1
   109    14    17    1
   110    11    13   am
   111    11    10    1
   112    97    96    1
   113    96    99    1
   114    10     9    1
   115     3     9   am
   116     3     2    1
   117     1     2    1
   118    99   100    1
   119   115   116    2
   120   115   114    1
   121     2     5    1
   122   119   117    1
   123   117   114    1
   124   117   118    1
   125     5     7    1
   126     5     6    1
   127   101   102    1
   128   120   118    1
   129   114   113    1
   130     6     8    1
   131   113   103   am
   132   103   102    1
   133   103   104    2
   134   102   105    1
   135    53    51   ar
   136    43    42    2
   137    50    51    1
   138    50    49    1
   139   105   106    1
   140    51    52   ar
   141    40    41    1
   142    42    41    1
   143    42    45   am
   144    46    49    1
   145    46    45    1
   146    46    47    1
   147    72    71    1
   148    41    44    1
   149   106   108   ar
   150   106   107   ar
   151   108   110   ar
   152    47    54   am
   153    47    48    2
   154    54    55    1
   155    73    71    1
   156   107   109   ar
   157    71    70    1
   158    58    55    1
   159   110   111   ar
   160    55    56    1
   161    70    67    1
   162   109   111   ar
   163   111   112    1
   164    67    68    1
   165    67    66    1
   166    69    68    2
   167    56    57    2
   168    65    63    1
   169    64    63    1
   170    63    60    1
   171    60    61    1
   172    60    59    1
   173    61    62    2
