@<TRIPOS>MOLECULE
tmp/1ebuD01.pdb
 103 96 0 0 0
SMALL
GASTEIGER

@<TRIPOS>ATOM
      1  N         42.2270   17.1900   67.0150 N.3    15  VAL15      -0.1245
      2  CA        43.4880   16.8010   66.3990 C.3    15  VAL15       0.1561
      3  C         44.3060   15.8810   67.2990 C.2    15  VAL15       0.2260
      4  O         44.8250   14.8570   66.8460 O.2    15  VAL15      -0.2867
      5  CB        44.3170   18.0470   66.0490 C.3    15  VAL15       0.0252
      6  CG1       45.6510   17.6470   65.4620 C.3    15  VAL15       0.0019
      7  CG2       43.5570   18.8910   65.0570 C.3    15  VAL15       0.0019
      8  N         50.5290   26.9760   66.1730 N.3   116  LYS116     -0.1245
      9  CA        51.1470   28.0780   65.4520 C.3   116  LYS116      0.1561
     10  C         51.7530   29.1850   66.3080 C.2   116  LYS116      0.2260
     11  O         52.6390   29.9090   65.8490 O.2   116  LYS116     -0.2867
     12  CB        50.1150   28.7080   64.5320 C.3   116  LYS116      0.0271
     13  CG        49.3430   27.7260   63.6810 C.3   116  LYS116      0.0035
     14  CD        48.0770   28.3800   63.1420 C.3   116  LYS116      0.0206
     15  CE        46.8220   27.6590   63.6370 C.3   116  LYS116      0.1093
     16  NZ        46.7820   26.2320   63.1730 N.3   116  LYS116     -0.1314
     17  N         43.4210   28.7200   54.9680 N.3   173  SER173     -0.1202
     18  CA        42.3410   28.5620   55.9260 C.3   173  SER173      0.2020
     19  C         41.3880   27.5390   55.3690 C.2   173  SER173      0.2619
     20  O         40.9130   27.6740   54.2450 O.2   173  SER173     -0.2717
     21  CB        41.6120   29.8900   56.1370 C.3   173  SER173      0.2103
     22  OG        40.4090   29.6950   56.8550 O.3   173  SER173     -0.2182
     23  N         41.1220   26.5000   56.1470 N.am  174  GLY174     -0.1942
     24  CA        40.2090   25.4790   55.6770 C.3   174  GLY174      0.2014
     25  C         38.8220   26.0740   55.5530 C.2   174  GLY174      0.2639
     26  O         38.1660   25.9340   54.5270 O.2   174  GLY174     -0.2714
     27  N         38.3920   26.7560   56.6090 N.am  175  THR175     -0.1950
     28  CA        37.0800   27.3770   56.6480 C.3   175  THR175      0.1897
     29  C         36.8810   28.4510   55.5900 C.2   175  THR175      0.2313
     30  O         35.8410   28.4890   54.9420 O.2   175  THR175     -0.2863
     31  CB        36.8010   27.9980   58.0280 C.3   175  THR175      0.1794
     32  OG1       36.6670   26.9510   58.9940 O.3   175  THR175     -0.2208
     33  CG2       35.5170   28.8130   57.9920 C.3   175  THR175      0.0378
     34  N         29.8400   21.9730   60.6680 N.3   204  GLY204     -0.1210
     35  CA        31.0000   21.9000   61.5430 C.3   204  GLY204      0.1956
     36  C         32.3080   22.3870   60.9330 C.2   204  GLY204      0.2612
     37  O         33.3590   22.3250   61.5720 O.2   204  GLY204     -0.2717
     38  N         32.2510   22.8750   59.7010 N.am  205  TYR205     -0.1962
     39  CA        33.4390   23.3710   59.0120 C.3   205  TYR205      0.1771
     40  C         33.9040   24.7250   59.5480 C.2   205  TYR205      0.2620
     41  O         34.6940   25.4060   58.8960 O.2   205  TYR205     -0.2715
     42  CB        33.1480   23.5270   57.5130 C.3   205  TYR205      0.0574
     43  CG        32.9450   22.2410   56.7500 C.ar  205  TYR205     -0.0198
     44  CD1       32.3410   21.1390   57.3480 C.ar  205  TYR205     -0.0009
     45  CD2       33.3110   22.1440   55.4110 C.ar  205  TYR205     -0.0009
     46  CE1       32.1030   19.9760   56.6330 C.ar  205  TYR205      0.0417
     47  CE2       33.0770   20.9870   54.6860 C.ar  205  TYR205      0.0417
     48  CZ        32.4720   19.9060   55.3040 C.ar  205  TYR205      0.1957
     49  OH        32.2270   18.7520   54.5990 O.3   205  TYR205     -0.2866
     50  N         33.4280   25.1150   60.7260 N.am  206  THR206     -0.1937
     51  CA        33.7850   26.4210   61.2820 C.3   206  THR206      0.2028
     52  C         33.9860   26.4250   62.7960 C.2   206  THR206      0.2642
     53  O         33.4020   25.6060   63.5110 O.2   206  THR206     -0.2714
     54  CB        32.6770   27.4590   60.9730 C.3   206  THR206      0.1808
     55  OG1       33.1210   28.7670   61.3330 O.3   206  THR206     -0.2208
     56  CG2       31.4320   27.1610   61.7870 C.3   206  THR206      0.0379
     57  N         34.8110   27.3510   63.2810 N.am  207  GLU207     -0.1976
     58  CA        35.0320   27.4950   64.7140 C.3   207  GLU207      0.1602
     59  C         33.6600   27.7420   65.3350 C.2   207  GLU207      0.2287
     60  O         32.6850   27.9550   64.6170 O.2   207  GLU207     -0.2864
     61  CB        35.9360   28.6950   64.9920 C.3   207  GLU207      0.0415
     62  CG        37.3920   28.4250   64.7140 C.3   207  GLU207      0.1163
     63  CD        37.8940   27.2540   65.5230 C.2   207  GLU207      0.3649
     64  OE1       37.9410   27.3700   66.7650 O.co2 207  GLU207     -0.2457
     65  OE2       38.2220   26.2120   64.9190 O.co2 207  GLU207     -0.2457
     66  N         36.9820   32.7940   62.4820 N.3   213  ASP213     -0.1239
     67  CA        37.5230   32.3810   61.1920 C.3   213  ASP213      0.1674
     68  C         37.5410   33.5300   60.1930 C.2   213  ASP213      0.2266
     69  O         38.4730   33.6620   59.4020 O.2   213  ASP213     -0.2867
     70  CB        36.6950   31.2380   60.6060 C.3   213  ASP213      0.1410
     71  CG        36.7540   29.9870   61.4430 C.2   213  ASP213      0.3668
     72  OD1       37.8660   29.4800   61.6960 O.co2 213  ASP213     -0.2456
     73  OD2       35.6830   29.5040   61.8490 O.co2 213  ASP213     -0.2456
     74  N         44.0740   33.6040   61.6760 N.3   218  ASP218     -0.1239
     75  CA        44.6550   32.2920   61.4550 C.3   218  ASP218      0.1674
     76  C         45.5960   32.3640   60.2520 C.2   218  ASP218      0.2266
     77  O         46.7370   31.9150   60.3050 O.2   218  ASP218     -0.2867
     78  CB        43.5410   31.2750   61.1920 C.3   218  ASP218      0.1410
     79  CG        44.0470   29.8480   61.1100 C.2   218  ASP218      0.3668
     80  OD1       43.3720   29.0300   60.4550 O.co2 218  ASP218     -0.2456
     81  OD2       45.1010   29.5330   61.7000 O.co2 218  ASP218     -0.2456
     82  N         49.9830   31.9350   59.6710 N.3   222  LYS222     -0.1245
     83  CA        50.6320   31.0010   58.7560 C.3   222  LYS222      0.1561
     84  C         51.5740   31.7200   57.8010 C.2   222  LYS222      0.2260
     85  O         52.6660   31.2190   57.5200 O.2   222  LYS222     -0.2867
     86  CB        49.5930   30.1930   57.9740 C.3   222  LYS222      0.0271
     87  CG        48.7940   29.2100   58.8290 C.3   222  LYS222      0.0035
     88  CD        47.7700   28.4650   57.9870 C.3   222  LYS222      0.0206
     89  CE        47.0070   27.4060   58.7910 C.3   222  LYS222      0.1093
     90  NZ        45.9670   27.9490   59.7030 N.3   222  LYS222     -0.1314
     91  N         43.6560   21.3510   54.4010 N.3   337  GLY337     -0.1210
     92  CA        44.4850   22.1090   55.3210 C.3   337  GLY337      0.1956
     93  C         43.8350   22.0930   56.6920 C.2   337  GLY337      0.2612
     94  O         44.2070   22.8450   57.5980 O.2   337  GLY337     -0.2717
     95  N         42.8440   21.2210   56.8360 N.am  338  ALA338     -0.1965
     96  CA        42.1270   21.0730   58.0880 C.3   338  ALA338      0.1728
     97  C         41.5210   19.6660   58.1540 C.2   338  ALA338      0.2616
     98  O         41.3900   18.9900   57.1240 O.2   338  ALA338     -0.2715
     99  CB        41.0410   22.1410   58.1900 C.3   338  ALA338      0.0334
    100  N         41.1580   19.2390   59.3640 N.am  339  GLY339     -0.1955
    101  CA        40.5920   17.9150   59.5710 C.3   339  GLY339      0.1869
    102  C         41.4560   17.2090   60.6050 C.2   339  GLY339      0.2309
    103  O         42.6770   17.3360   60.5750 O.2   339  GLY339     -0.2863
@<TRIPOS>BOND
     1    20    19    2
     2    91    92    1
     3    26    25    2
     4    49    48    1
     5    47    48   ar
     6    47    45   ar
     7    30    29    2
     8    17    18    1
     9    48    46   ar
    10    92    93    1
    11    19    18    1
    12    19    23   am
    13    45    43   ar
    14    25    24    1
    15    25    27   am
    16    29    28    1
    17    24    23    1
    18    18    21    1
    19    21    22    1
    20    27    28    1
    21    46    44   ar
    22    28    31    1
    23    93    95   am
    24    93    94    2
    25    43    44   ar
    26    43    42    1
    27    95    96    1
    28    98    97    2
    29    42    39    1
    30    85    84    2
    31    84    83    1
    32    86    83    1
    33    86    87    1
    34    88    89    1
    35    88    87    1
    36    33    31    1
    37    31    32    1
    38    96    97    1
    39    96    99    1
    40    97   100   am
    41    83    82    1
    42    89    90    1
    43    41    40    2
    44    39    40    1
    45    39    38    1
    46   100   101    1
    47    69    68    2
    48    40    50   am
    49   101   102    1
    50    38    36   am
    51    68    67    1
    52    76    77    2
    53    76    75    1
    54    80    79   ar
    55   103   102    2
    56    70    67    1
    57    70    71    1
    58    34    35    1
    59    50    51    1
    60    36    35    1
    61    36    37    2
    62    54    51    1
    63    54    55    1
    64    54    56    1
    65    79    78    1
    66    79    81   ar
    67    67    66    1
    68    78    75    1
    69    51    52    1
    70    71    72   ar
    71    71    73   ar
    72    75    74    1
    73    52    57   am
    74    52    53    2
    75    14    15    1
    76    14    13    1
    77    16    15    1
    78    57    58    1
    79    13    12    1
    80    12     9    1
    81    60    59    2
    82    62    61    1
    83    62    63    1
    84    58    61    1
    85    58    59    1
    86    65    63   ar
    87     7     5    1
    88     9     8    1
    89     9    10    1
    90     6     5    1
    91    63    64   ar
    92    11    10    2
    93     5     2    1
    94     2     1    1
    95     2     3    1
    96     4     3    2
