@<TRIPOS>MOLECULE
tmp/1ebvA03.pdb
 160 154 0 0 0
SMALL
GASTEIGER

@<TRIPOS>ATOM
      1  N         33.7220   26.9090  206.1790 N.3    84  VAL84      -0.1245
      2  CA        32.9090   27.5720  205.1790 C.3    84  VAL84       0.1561
      3  C         33.7900   27.9810  204.0100 C.2    84  VAL84       0.2260
      4  O         33.5980   27.5220  202.8860 O.2    84  VAL84      -0.2867
      5  CB        32.2490   28.8180  205.7650 C.3    84  VAL84       0.0252
      6  CG1       31.7100   29.6900  204.6490 C.3    84  VAL84       0.0019
      7  CG2       31.1400   28.4070  206.7170 C.3    84  VAL84       0.0019
      8  N         33.1570   25.5580  200.7100 N.3    88  ARG88      -0.1245
      9  CA        32.4080   26.3040  199.7030 C.3    88  ARG88       0.1563
     10  C         33.1840   26.5450  198.4130 C.2    88  ARG88       0.2260
     11  O         32.6300   26.4640  197.3160 O.2    88  ARG88      -0.2867
     12  CB        31.9510   27.6520  200.2840 C.3    88  ARG88       0.0307
     13  CG        30.4480   27.9070  200.1890 C.3    88  ARG88       0.0489
     14  CD        29.6790   26.8550  200.9790 C.3    88  ARG88       0.2205
     15  NE        28.3080   26.6520  200.5050 N.pl3  88  ARG88      -0.0865
     16  CZ        27.2410   27.3250  200.9300 C.cat  88  ARG88       0.5346
     17  NH1       27.3440   28.2770  201.8590 N.pl3  88  ARG88       0.1354
     18  NH2       26.0570   27.0300  200.4230 N.pl3  88  ARG88       0.1354
     19  N         28.3590   42.9260  204.0700 N.3   316  TYR316     -0.1227
     20  CA        27.5600   42.6690  202.8780 C.3   316  TYR316      0.1736
     21  C         27.0600   41.2270  202.8260 C.2   316  TYR316      0.2595
     22  O         25.8560   40.9970  202.8350 O.2   316  TYR316     -0.2718
     23  CB        28.4090   42.9900  201.6590 C.3   316  TYR316      0.0548
     24  CG        27.7610   42.7600  200.3290 C.ar  316  TYR316     -0.0200
     25  CD1       27.2830   43.8270  199.5790 C.ar  316  TYR316     -0.0009
     26  CD2       27.7180   41.4820  199.7670 C.ar  316  TYR316     -0.0009
     27  CE1       26.7930   43.6340  198.2910 C.ar  316  TYR316      0.0417
     28  CE2       27.2290   41.2770  198.4840 C.ar  316  TYR316      0.0417
     29  CZ        26.7760   42.3580  197.7500 C.ar  316  TYR316      0.1957
     30  OH        26.3590   42.1710  196.4550 O.3   316  TYR316     -0.2866
     31  N         27.9690   40.2550  202.7680 N.am  317  VAL317     -0.1980
     32  CA        27.5430   38.8540  202.7290 C.3   317  VAL317      0.1595
     33  C         26.7790   38.5340  203.9960 C.2   317  VAL317      0.2287
     34  O         25.7400   37.8800  203.9530 O.2   317  VAL317     -0.2864
     35  CB        28.7230   37.8790  202.6140 C.3   317  VAL317      0.0276
     36  CG1       28.2400   36.4570  202.7980 C.3   317  VAL317      0.0022
     37  CG2       29.3610   38.0140  201.2620 C.3   317  VAL317      0.0022
     38  N         23.2530   39.4290  203.5590 N.3   320  LEU320     -0.1231
     39  CA        22.5300   38.4570  202.7560 C.3   320  LEU320      0.1693
     40  C         22.2300   37.1610  203.5070 C.2   320  LEU320      0.2592
     41  O         21.0750   36.7870  203.6780 O.2   320  LEU320     -0.2718
     42  CB        23.3300   38.1150  201.5110 C.3   320  LEU320      0.0284
     43  CG        23.1740   38.9760  200.2760 C.3   320  LEU320      0.0019
     44  CD1       24.1440   38.4620  199.2320 C.3   320  LEU320      0.0001
     45  CD2       21.7530   38.8960  199.7650 C.3   320  LEU320      0.0001
     46  N         23.2790   36.4780  203.9450 N.am  321  SER321     -0.1952
     47  CA        23.1450   35.2090  204.6490 C.3   321  SER321      0.1924
     48  C         22.1340   35.2280  205.7800 C.2   321  SER321      0.2314
     49  O         21.4000   34.2680  205.9860 O.2   321  SER321     -0.2863
     50  CB        24.4940   34.7950  205.2190 C.3   321  SER321      0.2116
     51  OG        24.9410   35.7680  206.1440 O.3   321  SER321     -0.2180
     52  N         22.8670   34.9190  208.5440 N.3   323  TYR323     -0.1241
     53  CA        23.4440   33.9590  209.4720 C.3   323  TYR323      0.1605
     54  C         23.7000   34.5130  210.8610 C.2   323  TYR323      0.2264
     55  O         24.0530   35.6790  211.0210 O.2   323  TYR323     -0.2867
     56  CB        24.7650   33.4240  208.9300 C.3   323  TYR323      0.0534
     57  CG        24.6400   32.4620  207.7740 C.ar  323  TYR323     -0.0201
     58  CD1       25.7590   31.7960  207.2860 C.ar  323  TYR323     -0.0009
     59  CD2       23.4140   32.2190  207.1660 C.ar  323  TYR323     -0.0009
     60  CE1       25.6610   30.9160  206.2290 C.ar  323  TYR323      0.0417
     61  CE2       23.3110   31.3360  206.0950 C.ar  323  TYR323      0.0417
     62  CZ        24.4420   30.6880  205.6370 C.ar  323  TYR323      0.1957
     63  OH        24.3480   29.8090  204.5880 O.3   323  TYR323     -0.2866
     64  N         30.4930   35.9090  210.2690 N.3   327  LEU327     -0.1245
     65  CA        31.4470   35.7150  209.1740 C.3   327  LEU327      0.1561
     66  C         32.6980   36.5190  209.4440 C.2   327  LEU327      0.2260
     67  O         32.6220   37.6160  209.9890 O.2   327  LEU327     -0.2867
     68  CB        30.8440   36.1710  207.8600 C.3   327  LEU327      0.0270
     69  CG        29.6190   35.3800  207.4560 C.3   327  LEU327      0.0019
     70  CD1       29.0710   35.9090  206.1350 C.3   327  LEU327      0.0001
     71  CD2       30.0070   33.9190  207.3530 C.3   327  LEU327      0.0001
     72  N         28.0930   32.7910  186.8440 N.3   349  PHE349     -0.1241
     73  CA        28.1430   33.6730  188.0020 C.3   349  PHE349      0.1605
     74  C         27.5510   35.0110  187.5970 C.2   349  PHE349      0.2264
     75  O         26.8610   35.6570  188.3840 O.2   349  PHE349     -0.2867
     76  CB        29.5900   33.8310  188.4880 C.3   349  PHE349      0.0534
     77  CG        29.7500   34.6890  189.7250 C.ar  349  PHE349     -0.0203
     78  CD1       28.8010   34.6800  190.7330 C.ar  349  PHE349     -0.0042
     79  CD2       30.8900   35.4670  189.8980 C.ar  349  PHE349     -0.0042
     80  CE1       28.9870   35.4290  191.8920 C.ar  349  PHE349     -0.0003
     81  CE2       31.0810   36.2140  191.0490 C.ar  349  PHE349     -0.0003
     82  CZ        30.1280   36.1940  192.0490 C.ar  349  PHE349     -0.0000
     83  N         23.4970   34.6220  187.3870 N.3   352  LEU352     -0.1231
     84  CA        23.0170   34.5770  188.7610 C.3   352  LEU352      0.1693
     85  C         22.9940   35.9150  189.5070 C.2   352  LEU352      0.2592
     86  O         22.1300   36.1400  190.3550 O.2   352  LEU352     -0.2718
     87  CB        23.8720   33.5580  189.5200 C.3   352  LEU352      0.0284
     88  CG        23.8000   33.3620  191.0300 C.3   352  LEU352      0.0019
     89  CD1       24.6550   32.1710  191.3850 C.3   352  LEU352      0.0001
     90  CD2       24.3050   34.5770  191.7610 C.3   352  LEU352      0.0001
     91  N         23.9320   36.8040  189.1970 N.am  353  TYR353     -0.1976
     92  CA        23.9960   38.0760  189.8980 C.3   353  TYR353      0.1639
     93  C         23.0910   39.1650  189.3750 C.2   353  TYR353      0.2290
     94  O         23.1470   40.2860  189.8620 O.2   353  TYR353     -0.2864
     95  CB        25.4300   38.5970  189.9300 C.3   353  TYR353      0.0560
     96  CG        25.9550   38.9040  191.3200 C.ar  353  TYR353     -0.0198
     97  CD1       27.1400   38.3410  191.7750 C.ar  353  TYR353     -0.0009
     98  CD2       25.2630   39.7470  192.1790 C.ar  353  TYR353     -0.0009
     99  CE1       27.6200   38.6030  193.0500 C.ar  353  TYR353      0.0417
    100  CE2       25.7390   40.0210  193.4630 C.ar  353  TYR353      0.0417
    101  CZ        26.9150   39.4430  193.8920 C.ar  353  TYR353      0.1957
    102  OH        27.3800   39.6770  195.1690 O.3   353  TYR353     -0.2866
    103  N         20.5070   40.8130  189.9830 N.3   355  TRP355     -0.1241
    104  CA        19.5380   41.0010  191.0600 C.3   355  TRP355      0.1605
    105  C         18.6200   42.2090  190.9160 C.2   355  TRP355      0.2264
    106  O         18.3040   42.8890  191.8990 O.2   355  TRP355     -0.2867
    107  CB        20.2640   41.0900  192.3940 C.3   355  TRP355      0.0550
    108  CG        20.9890   39.8500  192.7680 C.ar  355  TRP355      0.0003
    109  CD1       20.8820   38.6160  192.1830 C.ar  355  TRP355      0.0946
    110  CD2       21.8980   39.7000  193.8620 C.ar  355  TRP355      0.0152
    111  NE1       21.6670   37.7070  192.8510 N.ar  355  TRP355     -0.2442
    112  CE2       22.3010   38.3460  193.8860 C.ar  355  TRP355      0.0810
    113  CE3       22.4090   40.5790  194.8280 C.ar  355  TRP355      0.0012
    114  CZ2       23.1940   37.8520  194.8440 C.ar  355  TRP355      0.0191
    115  CZ3       23.2940   40.0890  195.7770 C.ar  355  TRP355      0.0001
    116  CH2       23.6770   38.7370  195.7780 C.ar  355  TRP355      0.0015
    117  N         16.1430   35.0620  199.0930 N.3   486  PHE486     -0.1241
    118  CA        16.0890   34.1640  197.9460 C.3   486  PHE486      0.1605
    119  C         16.1720   32.6760  198.2920 C.2   486  PHE486      0.2264
    120  O         16.1630   32.2970  199.4650 O.2   486  PHE486     -0.2867
    121  CB        17.1250   34.5450  196.8720 C.3   486  PHE486      0.0534
    122  CG        18.4910   34.8940  197.4040 C.ar  486  PHE486     -0.0203
    123  CD1       19.1950   35.9670  196.8590 C.ar  486  PHE486     -0.0042
    124  CD2       19.0880   34.1450  198.4070 C.ar  486  PHE486     -0.0042
    125  CE1       20.4640   36.2900  197.2990 C.ar  486  PHE486     -0.0003
    126  CE2       20.3630   34.4590  198.8570 C.ar  486  PHE486     -0.0003
    127  CZ        21.0520   35.5360  198.3000 C.ar  486  PHE486     -0.0000
    128  N         20.1220   29.7150  194.9010 N.3   490  MET490     -0.1230
    129  CA        20.8150   30.9970  194.8360 C.3   490  MET490      0.1702
    130  C         21.9960   30.9830  195.7920 C.2   490  MET490      0.2592
    131  O         23.0960   31.4000  195.4430 O.2   490  MET490     -0.2718
    132  CB        19.8700   32.1500  195.1880 C.3   490  MET490      0.0401
    133  CG        20.4500   33.5400  194.9360 C.3   490  MET490      0.0596
    134  SD        20.8650   33.8620  193.1940 S.3   490  MET490     -0.1393
    135  CE        19.2150   34.0110  192.4860 C.3   490  MET490      0.0692
    136  N         21.7660   30.4810  196.9960 N.am  491  ILE491     -0.1980
    137  CA        22.8200   30.4190  197.9980 C.3   491  ILE491      0.1595
    138  C         23.8480   29.3550  197.6820 C.2   491  ILE491      0.2287
    139  O         25.0280   29.6500  197.5390 O.2   491  ILE491     -0.2864
    140  CB        22.2380   30.1710  199.3970 C.3   491  ILE491      0.0276
    141  CG1       21.3780   31.3700  199.8050 C.3   491  ILE491      0.0022
    142  CG2       23.3490   29.9600  200.3860 C.3   491  ILE491      0.0022
    143  CD1       20.6770   31.2200  201.1260 C.3   491  ILE491      0.0001
    144  N         25.6740   30.3710  194.3580 N.3   494  GLY494     -0.1210
    145  CA        26.3350   31.6620  194.4440 C.3   494  GLY494      0.1956
    146  C         27.4130   31.8150  195.4890 C.2   494  GLY494      0.2611
    147  O         28.4010   32.4820  195.2480 O.2   494  GLY494     -0.2717
    148  N         27.2270   31.2140  196.6550 N.am  495  ALA495     -0.1979
    149  CA        28.2100   31.3110  197.7210 C.3   495  ALA495      0.1597
    150  C         29.6110   30.8760  197.2670 C.2   495  ALA495      0.2287
    151  O         30.5900   31.5710  197.5270 O.2   495  ALA495     -0.2864
    152  CB        27.7620   30.4890  198.8880 C.3   495  ALA495      0.0319
    153  N         32.6200   33.4270  197.4700 N.3   498  LEU498     -0.1245
    154  CA        33.7060   33.2790  198.4240 C.3   498  LEU498      0.1561
    155  C         35.0450   33.0540  197.7250 C.2   498  LEU498      0.2260
    156  O         36.0620   33.6040  198.1440 O.2   498  LEU498     -0.2867
    157  CB        33.4030   32.1500  199.4080 C.3   498  LEU498      0.0270
    158  CG        32.2580   32.5420  200.3420 C.3   498  LEU498      0.0019
    159  CD1       32.0320   31.4460  201.3640 C.3   498  LEU498      0.0001
    160  CD2       32.5870   33.8580  201.0260 C.3   498  LEU498      0.0001
@<TRIPOS>BOND
     1    72    73    1
     2    83    84    1
     3    74    73    1
     4    74    75    2
     5    73    76    1
     6    76    77    1
     7    84    85    1
     8    84    87    1
     9    91    85   am
    10    91    92    1
    11    93    94    2
    12    93    92    1
    13    85    86    2
    14    87    88    1
    15    77    79   ar
    16    77    78   ar
    17    79    81   ar
    18    92    95    1
    19    95    96    1
    20   103   104    1
    21    78    80   ar
    22   105   104    1
    23   105   106    2
    24    88    89    1
    25    88    90    1
    26    81    82   ar
    27   104   107    1
    28    96    97   ar
    29    96    98   ar
    30    97    99   ar
    31    80    82   ar
    32    98   100   ar
    33   109   108   ar
    34   109   111   ar
    35   107   108    1
    36   135   134    1
    37   108   110   ar
    38   111   112   ar
    39    99   101   ar
    40   134   133    1
    41   100   101   ar
    42   110   112   ar
    43   110   113   ar
    44   112   114   ar
    45   101   102    1
    46   144   145    1
    47   145   146    1
    48   113   115   ar
    49   129   128    1
    50   129   132    1
    51   129   130    1
    52   114   116   ar
    53   133   132    1
    54   147   146    2
    55   131   130    2
    56   146   148   am
    57   115   116   ar
    58   130   136   am
    59    30    29    1
    60   148   149    1
    61   123   125   ar
    62   123   122   ar
    63   121   122    1
    64   121   118    1
    65   136   137    1
    66   150   151    2
    67   150   149    1
    68   125   127   ar
    69    11    10    2
    70   122   124   ar
    71   153   154    1
    72   139   138    2
    73   138   137    1
    74   149   152    1
    75   155   156    2
    76   155   154    1
    77    29    27   ar
    78    29    28   ar
    79   118   119    1
    80   118   117    1
    81   137   140    1
    82    27    25   ar
    83   119   120    2
    84   127   126   ar
    85   124   126   ar
    86    10     9    1
    87   154   157    1
    88    28    26   ar
    89    44    43    1
    90   140   141    1
    91   140   142    1
    92   157   158    1
    93    25    24   ar
    94     9    12    1
    95     9     8    1
    96    45    43    1
    97    26    24   ar
    98   141   143    1
    99    13    12    1
   100    13    14    1
   101    43    42    1
   102    24    23    1
   103   158   160    1
   104   158   159    1
   105    18    16    1
   106    15    16    2
   107    15    14    1
   108    16    17    1
   109    37    35    1
   110    42    39    1
   111    23    20    1
   112    35    32    1
   113    35    36    1
   114    32    31    1
   115    32    33    1
   116    39    40    1
   117    39    38    1
   118    31    21   am
   119    21    22    2
   120    21    20    1
   121    20    19    1
   122     4     3    2
   123    40    41    2
   124    40    46   am
   125    46    47    1
   126    34    33    2
   127     3     2    1
   128    63    62    1
   129    47    50    1
   130    47    48    1
   131     6     5    1
   132     2     5    1
   133     2     1    1
   134    50    51    1
   135    62    61   ar
   136    62    60   ar
   137     5     7    1
   138    48    49    2
   139    61    59   ar
   140    70    69    1
   141    60    58   ar
   142    59    57   ar
   143    58    57   ar
   144    71    69    1
   145    69    68    1
   146    57    56    1
   147    68    65    1
   148    52    53    1
   149    56    53    1
   150    65    66    1
   151    65    64    1
   152    66    67    2
   153    53    54    1
   154    54    55    2
