@<TRIPOS>MOLECULE
tmp/1ebwB00.pdb
 105 98 0 0 0
SMALL
GASTEIGER

@<TRIPOS>ATOM
      1  N          9.5420   34.5160   -1.4630 N.3     8  ARG8       -0.1245
      2  CA        10.2840   33.2590   -1.5500 C.3     8  ARG8        0.1563
      3  C         11.1930   33.3210   -2.7730 C.2     8  ARG8        0.2260
      4  O         10.7880   33.7950   -3.8380 O.2     8  ARG8       -0.2867
      5  CB         9.3340   32.0650   -1.6920 C.3     8  ARG8        0.0307
      6  CG         8.5230   31.7740   -0.4500 C.3     8  ARG8        0.0489
      7  CD         7.6550   30.5360   -0.6390 C.3     8  ARG8        0.2205
      8  NE         6.9030   30.2330    0.5720 N.pl3   8  ARG8       -0.0865
      9  CZ         6.0140   29.2520    0.6770 C.cat   8  ARG8        0.5346
     10  NH1        5.7570   28.4690   -0.3640 N.pl3   8  ARG8        0.1354
     11  NH2        5.3720   29.0610    1.8250 N.pl3   8  ARG8        0.1354
     12  N         12.6350   26.3130   -5.2260 N.3    23  LEU23      -0.1245
     13  CA        13.0720   27.2490   -4.2000 C.3    23  LEU23       0.1561
     14  C         14.5750   27.1520   -3.9290 C.2    23  LEU23       0.2260
     15  O         15.0850   26.0670   -3.7030 O.2    23  LEU23      -0.2867
     16  CB        12.2830   26.9440   -2.9210 C.3    23  LEU23       0.0270
     17  CG        12.4040   27.7710   -1.6420 C.3    23  LEU23       0.0019
     18  CD1       11.8710   29.1680   -1.8670 C.3    23  LEU23       0.0001
     19  CD2       11.6020   27.0780   -0.5350 C.3    23  LEU23       0.0001
     20  N         17.1720   27.0800   -1.6080 N.3    25  ASP25      -0.1239
     21  CA        17.1430   26.8430   -0.1680 C.3    25  ASP25       0.1674
     22  C         18.4930   26.6110    0.5120 C.2    25  ASP25       0.2266
     23  O         19.0140   25.5020    0.4780 O.2    25  ASP25      -0.2867
     24  CB        16.2490   25.6230    0.0650 C.3    25  ASP25       0.1410
     25  CG        15.8120   25.4780    1.5000 C.2    25  ASP25       0.3668
     26  OD1       16.4490   26.0800    2.3870 O.co2  25  ASP25      -0.2456
     27  OD2       14.8290   24.7530    1.7260 O.co2  25  ASP25      -0.2456
     28  N         19.0080   26.3630    3.5430 N.3    27  GLY27      -0.1210
     29  CA        18.8200   25.5200    4.7100 C.3    27  GLY27       0.1956
     30  C         18.6810   24.0400    4.3880 C.2    27  GLY27       0.2612
     31  O         18.4140   23.2350    5.2800 O.2    27  GLY27      -0.2717
     32  N         18.8650   23.6780    3.1230 N.am   28  ALA28      -0.1965
     33  CA        18.7500   22.2810    2.6960 C.3    28  ALA28       0.1728
     34  C         20.0870   21.7130    2.2270 C.2    28  ALA28       0.2616
     35  O         20.7310   22.2810    1.3490 O.2    28  ALA28      -0.2715
     36  CB        17.7200   22.1670    1.5730 C.3    28  ALA28       0.0334
     37  N         20.5090   20.5940    2.8170 N.am   29  ASP29      -0.1957
     38  CA        21.7680   19.9700    2.4140 C.3    29  ASP29       0.1840
     39  C         21.6250   19.4070    1.0060 C.2    29  ASP29       0.2622
     40  O         22.5640   19.4340    0.2140 O.2    29  ASP29      -0.2715
     41  CB        22.1180   18.7760    3.3040 C.3    29  ASP29       0.1450
     42  CG        22.5900   19.1670    4.6830 C.2    29  ASP29       0.3671
     43  OD1       22.7660   20.3680    4.9670 O.co2  29  ASP29      -0.2456
     44  OD2       22.7950   18.2370    5.4890 O.co2  29  ASP29      -0.2456
     45  N         20.4400   18.8760    0.7230 N.am   30  ASP30      -0.1971
     46  CA        20.1690   18.2230   -0.5500 C.3    30  ASP30       0.1709
     47  C         19.1120   18.8890   -1.4100 C.2    30  ASP30       0.2293
     48  O         18.3710   19.7580   -0.9590 O.2    30  ASP30      -0.2864
     49  CB        19.7370   16.7740   -0.2930 C.3    30  ASP30       0.1436
     50  CG        20.7060   16.0220    0.6080 C.2    30  ASP30       0.3671
     51  OD1       21.9120   16.0120    0.3050 O.co2  30  ASP30      -0.2456
     52  OD2       20.2590   15.4400    1.6180 O.co2  30  ASP30      -0.2456
     53  N         15.7630   18.2360   -3.5490 N.3    32  VAL32      -0.1245
     54  CA        14.6520   17.2930   -3.6320 C.3    32  VAL32       0.1561
     55  C         13.5390   17.8420   -4.5020 C.2    32  VAL32       0.2260
     56  O         13.0930   18.9710   -4.3060 O.2    32  VAL32      -0.2867
     57  CB        14.0630   16.9980   -2.2370 C.3    32  VAL32       0.0252
     58  CG1       13.0750   15.8230   -2.3250 C.3    32  VAL32       0.0019
     59  CG2       15.1780   16.6850   -1.2670 C.3    32  VAL32       0.0019
     60  N         15.5980   11.4450    4.4470 N.3    47  ILE47      -0.1231
     61  CA        16.0130   12.8030    4.7680 C.3    47  ILE47       0.1692
     62  C         15.0740   13.3990    5.7980 C.2    47  ILE47       0.2593
     63  O         13.8640   13.1690    5.7590 O.2    47  ILE47      -0.2718
     64  CB        16.0480   13.6990    3.5140 C.3    47  ILE47       0.0266
     65  CG1       14.6820   13.7120    2.8350 C.3    47  ILE47       0.0019
     66  CG2       17.1370   13.2060    2.5680 C.3    47  ILE47       0.0020
     67  CD1       14.6110   14.6240    1.6180 C.3    47  ILE47       0.0001
     68  N         15.6380   14.1690    6.7220 N.am   48  GLY48      -0.1942
     69  CA        14.8260   14.7640    7.7660 C.3    48  GLY48       0.2014
     70  C         14.7030   16.2680    7.6710 C.2    48  GLY48       0.2639
     71  O         15.6480   16.9640    7.3050 O.2    48  GLY48      -0.2714
     72  N         13.5150   16.7620    7.9930 N.am   49  GLY49      -0.1939
     73  CA        13.2650   18.1850    7.9680 C.3    49  GLY49       0.2014
     74  C         12.5690   18.5880    9.2470 C.2    49  GLY49       0.2638
     75  O         12.7160   17.9320   10.2810 O.2    49  GLY49      -0.2714
     76  N         11.7830   19.6530    9.1660 N.am   50  ILE50      -0.1977
     77  CA        11.0560   20.1740   10.3110 C.3    50  ILE50       0.1596
     78  C         10.0580   19.2260   10.9650 C.2    50  ILE50       0.2287
     79  O         10.0500   19.0940   12.1900 O.2    50  ILE50      -0.2864
     80  CB        10.3460   21.5010    9.9300 C.3    50  ILE50       0.0276
     81  CG1       11.3540   22.6440   10.0320 C.3    50  ILE50       0.0022
     82  CG2        9.1270   21.7460   10.8040 C.3    50  ILE50       0.0022
     83  CD1       12.1420   22.6430   11.3310 C.3    50  ILE50       0.0001
     84  N          6.9160   18.9850   -0.3060 N.3    81  PRO81      -0.2102
     85  CA         5.8690   19.9940   -0.5070 C.3    81  PRO81       0.1504
     86  C          6.1540   20.9490   -1.6690 C.2    81  PRO81       0.2575
     87  O          5.2290   21.4800   -2.2920 O.2    81  PRO81      -0.2718
     88  CB         5.8390   20.7350    0.8290 C.3    81  PRO81       0.0282
     89  CG         6.3120   19.7140    1.8070 C.3    81  PRO81       0.0208
     90  CD         7.4490   19.0530    1.0660 C.3    81  PRO81       0.0893
     91  N          7.4360   21.1750   -1.9450 N.am   82  VAL82      -0.1980
     92  CA         7.8570   22.0760   -3.0170 C.3    82  VAL82       0.1595
     93  C          9.2030   21.6180   -3.5620 C.2    82  VAL82       0.2287
     94  O          9.9370   20.9020   -2.8810 O.2    82  VAL82      -0.2864
     95  CB         8.0420   23.5350   -2.5140 C.3    82  VAL82       0.0276
     96  CG1        6.7210   24.1060   -2.0190 C.3    82  VAL82       0.0022
     97  CG2        9.0780   23.5720   -1.4070 C.3    82  VAL82       0.0022
     98  N         12.9100   21.7760   -4.1560 N.3    84  ILE84      -0.1245
     99  CA        13.9770   22.4100   -3.3850 C.3    84  ILE84       0.1561
    100  C         15.3680   22.2600   -3.9920 C.2    84  ILE84       0.2260
    101  O         15.8130   21.1480   -4.2640 O.2    84  ILE84      -0.2867
    102  CB        14.0150   21.8160   -1.9430 C.3    84  ILE84       0.0252
    103  CG1       12.7070   22.1450   -1.2220 C.3    84  ILE84       0.0019
    104  CG2       15.2170   22.3520   -1.1710 C.3    84  ILE84       0.0019
    105  CD1       12.5020   21.3590    0.0650 C.3    84  ILE84       0.0001
@<TRIPOS>BOND
     1    12    13    1
     2    55    56    2
     3    55    54    1
     4   101   100    2
     5    13    14    1
     6    13    16    1
     7    98    99    1
     8   100    99    1
     9    14    15    2
    10     4     3    2
    11    54    53    1
    12    54    57    1
    13    93    92    1
    14    93    94    2
    15    99   102    1
    16    92    95    1
    17    92    91    1
    18    16    17    1
    19     3     2    1
    20    95    96    1
    21    95    97    1
    22    58    57    1
    23    87    86    2
    24    57    59    1
    25    91    86   am
    26   102   103    1
    27   102   104    1
    28    18    17    1
    29     5     2    1
    30     5     6    1
    31    86    85    1
    32    17    19    1
    33    20    21    1
    34     2     1    1
    35    47    48    2
    36    47    46    1
    37   103   105    1
    38     7     6    1
    39     7     8    1
    40    46    49    1
    41    46    45    1
    42    85    84    1
    43    85    88    1
    44    10     9    1
    45    84    90    1
    46    49    50    1
    47    21    24    1
    48    21    22    1
    49    24    25    1
    50    40    39    2
    51    51    50   ar
    52    23    22    2
    53     8     9    2
    54    50    52   ar
    55     9    11    1
    56    45    39   am
    57    88    89    1
    58    39    38    1
    59    90    89    1
    60    35    34    2
    61    25    27   ar
    62    25    26   ar
    63    36    33    1
    64    67    65    1
    65    34    33    1
    66    34    37   am
    67    38    37    1
    68    38    41    1
    69    66    64    1
    70    33    32    1
    71    65    64    1
    72    32    30   am
    73    41    42    1
    74    64    61    1
    75    28    29    1
    76    30    29    1
    77    30    31    2
    78    60    61    1
    79    42    43   ar
    80    42    44   ar
    81    61    62    1
    82    63    62    2
    83    62    68   am
    84    68    69    1
    85    71    70    2
    86    70    69    1
    87    70    72   am
    88    73    72    1
    89    73    74    1
    90    76    74   am
    91    76    77    1
    92    74    75    2
    93    80    81    1
    94    80    77    1
    95    80    82    1
    96    81    83    1
    97    77    78    1
    98    78    79    2
