@<TRIPOS>MOLECULE
tmp/1ebyB00.pdb
 105 98 0 0 0
SMALL
GASTEIGER

@<TRIPOS>ATOM
      1  N          9.4630   34.5420   -1.4440 N.3     8  ARG8       -0.1245
      2  CA        10.1940   33.2920   -1.5390 C.3     8  ARG8        0.1563
      3  C         11.1120   33.3650   -2.7640 C.2     8  ARG8        0.2260
      4  O         10.7060   33.8430   -3.8260 O.2     8  ARG8       -0.2867
      5  CB         9.2200   32.1290   -1.6780 C.3     8  ARG8        0.0307
      6  CG         8.4890   31.8110   -0.4010 C.3     8  ARG8        0.0489
      7  CD         7.6260   30.5790   -0.5800 C.3     8  ARG8        0.2205
      8  NE         7.0780   30.1070    0.6870 N.pl3   8  ARG8       -0.0865
      9  CZ         6.2870   29.0430    0.8030 C.cat   8  ARG8        0.5346
     10  NH1        5.9540   28.3450   -0.2770 N.pl3   8  ARG8        0.1354
     11  NH2        5.8330   28.6740    1.9960 N.pl3   8  ARG8        0.1354
     12  N         12.5480   26.3410   -5.2980 N.3    23  LEU23      -0.1245
     13  CA        12.9870   27.2740   -4.2740 C.3    23  LEU23       0.1561
     14  C         14.4900   27.1700   -3.9760 C.2    23  LEU23       0.2260
     15  O         15.0020   26.0770   -3.7440 O.2    23  LEU23      -0.2867
     16  CB        12.1810   26.9930   -3.0040 C.3    23  LEU23       0.0270
     17  CG        12.3320   27.8430   -1.7450 C.3    23  LEU23       0.0019
     18  CD1       11.6920   29.1990   -1.9590 C.3    23  LEU23       0.0001
     19  CD2       11.6510   27.1290   -0.5790 C.3    23  LEU23       0.0001
     20  N         17.0600   27.0960   -1.5960 N.3    25  ASP25      -0.1239
     21  CA        17.0510   26.8910   -0.1490 C.3    25  ASP25       0.1674
     22  C         18.4100   26.6160    0.5210 C.2    25  ASP25       0.2266
     23  O         18.9050   25.4920    0.4790 O.2    25  ASP25      -0.2867
     24  CB        16.1000   25.7300    0.1340 C.3    25  ASP25       0.1410
     25  CG        15.7650   25.5910    1.5880 C.2    25  ASP25       0.3668
     26  OD1       16.4440   26.2230    2.4250 O.co2  25  ASP25      -0.2456
     27  OD2       14.8150   24.8390    1.8850 O.co2  25  ASP25      -0.2456
     28  N         18.9600   26.3060    3.5180 N.3    27  GLY27      -0.1210
     29  CA        18.7680   25.4620    4.6880 C.3    27  GLY27       0.1956
     30  C         18.6710   23.9840    4.3320 C.2    27  GLY27       0.2612
     31  O         18.5720   23.1290    5.2120 O.2    27  GLY27      -0.2717
     32  N         18.6950   23.6850    3.0360 N.am   28  ALA28      -0.1965
     33  CA        18.6070   22.3070    2.5570 C.3    28  ALA28       0.1728
     34  C         19.9710   21.8100    2.1160 C.2    28  ALA28       0.2616
     35  O         20.6100   22.4290    1.2630 O.2    28  ALA28      -0.2715
     36  CB        17.6280   22.2180    1.3850 C.3    28  ALA28       0.0334
     37  N         20.4190   20.6910    2.6850 N.am   29  ASP29      -0.1957
     38  CA        21.7170   20.1430    2.3070 C.3    29  ASP29       0.1840
     39  C         21.6580   19.5910    0.8860 C.2    29  ASP29       0.2622
     40  O         22.6140   19.7180    0.1200 O.2    29  ASP29      -0.2715
     41  CB        22.1370   19.0060    3.2440 C.3    29  ASP29       0.1450
     42  CG        22.2280   19.4370    4.6950 C.2    29  ASP29       0.3671
     43  OD1       22.7030   20.5540    4.9730 O.co2  29  ASP29      -0.2456
     44  OD2       21.8350   18.6390    5.5630 O.co2  29  ASP29      -0.2456
     45  N         20.5290   18.9740    0.5470 N.am   30  ASP30      -0.1971
     46  CA        20.3500   18.3690   -0.7660 C.3    30  ASP30       0.1709
     47  C         19.2050   18.9860   -1.5590 C.2    30  ASP30       0.2293
     48  O         18.4640   19.8460   -1.0660 O.2    30  ASP30      -0.2864
     49  CB        20.0900   16.8660   -0.6240 C.3    30  ASP30       0.1436
     50  CG        21.1200   16.1640    0.2540 C.2    30  ASP30       0.3671
     51  OD1       22.3260   16.2500   -0.0580 O.co2  30  ASP30      -0.2456
     52  OD2       20.7210   15.5170    1.2530 O.co2  30  ASP30      -0.2456
     53  N         15.7160   18.2600   -3.5900 N.3    32  VAL32      -0.1245
     54  CA        14.6010   17.3170   -3.6590 C.3    32  VAL32       0.1561
     55  C         13.4750   17.8750   -4.5170 C.2    32  VAL32       0.2260
     56  O         13.0220   18.9950   -4.3080 O.2    32  VAL32      -0.2867
     57  CB        14.0120   17.0300   -2.2630 C.3    32  VAL32       0.0252
     58  CG1       13.0090   15.8740   -2.3470 C.3    32  VAL32       0.0019
     59  CG2       15.1140   16.6950   -1.3010 C.3    32  VAL32       0.0019
     60  N         15.6310   11.7340    4.4440 N.3    47  ILE47      -0.1231
     61  CA        16.0200   13.0960    4.7590 C.3    47  ILE47       0.1692
     62  C         15.1030   13.6130    5.8520 C.2    47  ILE47       0.2593
     63  O         13.8970   13.3680    5.8310 O.2    47  ILE47      -0.2718
     64  CB        15.9490   14.0270    3.5160 C.3    47  ILE47       0.0266
     65  CG1       14.5390   14.0450    2.9360 C.3    47  ILE47       0.0019
     66  CG2       16.9340   13.5570    2.4610 C.3    47  ILE47       0.0020
     67  CD1       14.3810   14.9910    1.7590 C.3    47  ILE47       0.0001
     68  N         15.6850   14.3130    6.8180 N.am   48  GLY48      -0.1942
     69  CA        14.9010   14.8470    7.9140 C.3    48  GLY48       0.2014
     70  C         14.7540   16.3520    7.8570 C.2    48  GLY48       0.2639
     71  O         15.7250   17.0720    7.6280 O.2    48  GLY48      -0.2714
     72  N         13.5320   16.8290    8.0650 N.am   49  GLY49      -0.1939
     73  CA        13.2800   18.2540    8.0310 C.3    49  GLY49       0.2014
     74  C         12.6250   18.7410    9.3050 C.2    49  GLY49       0.2638
     75  O         12.8610   18.1970   10.3840 O.2    49  GLY49      -0.2714
     76  N         11.7900   19.7650    9.1740 N.am   50  ILE50      -0.1977
     77  CA        11.0870   20.3420   10.3140 C.3    50  ILE50       0.1596
     78  C         10.1300   19.3740   11.0080 C.2    50  ILE50       0.2287
     79  O         10.1450   19.2660   12.2310 O.2    50  ILE50      -0.2864
     80  CB        10.2910   21.6080    9.8910 C.3    50  ILE50       0.0276
     81  CG1       11.2590   22.7580    9.6220 C.3    50  ILE50       0.0022
     82  CG2        9.2970   22.0040   10.9750 C.3    50  ILE50       0.0022
     83  CD1       12.1030   23.1230   10.8150 C.3    50  ILE50       0.0001
     84  N          6.8670   19.0830   -0.2040 N.3    81  PRO81      -0.2102
     85  CA         5.8160   20.0890   -0.4200 C.3    81  PRO81       0.1504
     86  C          6.0930   21.0040   -1.6170 C.2    81  PRO81       0.2575
     87  O          5.1600   21.4550   -2.2880 O.2    81  PRO81      -0.2718
     88  CB         5.7900   20.8630    0.9010 C.3    81  PRO81       0.0282
     89  CG         6.3210   19.8730    1.9110 C.3    81  PRO81       0.0208
     90  CD         7.4500   19.2140    1.1450 C.3    81  PRO81       0.0893
     91  N          7.3740   21.2870   -1.8680 N.am   82  VAL82      -0.1980
     92  CA         7.7900   22.1370   -2.9840 C.3    82  VAL82       0.1595
     93  C          9.1260   21.6580   -3.5570 C.2    82  VAL82       0.2287
     94  O          9.8620   20.9200   -2.8970 O.2    82  VAL82      -0.2864
     95  CB         7.9760   23.6100   -2.5460 C.3    82  VAL82       0.0276
     96  CG1        6.6240   24.2540   -2.2630 C.3    82  VAL82       0.0022
     97  CG2        8.8660   23.6740   -1.3110 C.3    82  VAL82       0.0022
     98  N         12.8660   21.8310   -4.2650 N.3    84  ILE84      -0.1245
     99  CA        13.9410   22.4650   -3.5000 C.3    84  ILE84       0.1561
    100  C         15.3450   22.3290   -4.1020 C.2    84  ILE84       0.2260
    101  O         15.8090   21.2240   -4.3910 O.2    84  ILE84      -0.2867
    102  CB        13.9760   21.8740   -2.0500 C.3    84  ILE84       0.0252
    103  CG1       12.7390   22.3250   -1.2740 C.3    84  ILE84       0.0019
    104  CG2       15.2520   22.2890   -1.3270 C.3    84  ILE84       0.0019
    105  CD1       12.5100   21.5320    0.0050 C.3    84  ILE84       0.0001
@<TRIPOS>BOND
     1    12    13    1
     2    55    56    2
     3    55    54    1
     4   101   100    2
     5    13    14    1
     6    13    16    1
     7    98    99    1
     8   100    99    1
     9    14    15    2
    10     4     3    2
    11    54    53    1
    12    54    57    1
    13    93    92    1
    14    93    94    2
    15    99   102    1
    16    16    17    1
    17    92    95    1
    18    92    91    1
    19     3     2    1
    20    95    96    1
    21    95    97    1
    22    58    57    1
    23    87    86    2
    24    57    59    1
    25   102   104    1
    26   102   103    1
    27    18    17    1
    28    91    86   am
    29    17    19    1
    30     5     2    1
    31     5     6    1
    32    86    85    1
    33    20    21    1
    34    47    48    2
    35    47    46    1
    36     2     1    1
    37   103   105    1
    38    46    49    1
    39    46    45    1
    40    49    50    1
    41     7     6    1
    42     7     8    1
    43    85    84    1
    44    85    88    1
    45    10     9    1
    46    84    90    1
    47    21    24    1
    48    21    22    1
    49    51    50   ar
    50    40    39    2
    51    24    25    1
    52    50    52   ar
    53    23    22    2
    54    45    39   am
    55     8     9    2
    56     9    11    1
    57    39    38    1
    58    88    89    1
    59    90    89    1
    60    35    34    2
    61    36    33    1
    62    25    27   ar
    63    25    26   ar
    64    67    65    1
    65    34    33    1
    66    34    37   am
    67    38    37    1
    68    38    41    1
    69    66    64    1
    70    33    32    1
    71    65    64    1
    72    32    30   am
    73    41    42    1
    74    64    61    1
    75    28    29    1
    76    30    29    1
    77    30    31    2
    78    60    61    1
    79    42    43   ar
    80    42    44   ar
    81    61    62    1
    82    63    62    2
    83    62    68   am
    84    68    69    1
    85    71    70    2
    86    70    69    1
    87    70    72   am
    88    73    72    1
    89    73    74    1
    90    76    74   am
    91    76    77    1
    92    74    75    2
    93    81    80    1
    94    81    83    1
    95    80    77    1
    96    80    82    1
    97    77    78    1
    98    78    79    2
