@<TRIPOS>MOLECULE
tmp/1ebzA00.pdb
 105 98 0 0 0
SMALL
GASTEIGER

@<TRIPOS>ATOM
      1  N         26.8310   24.1490    5.9330 N.3     8  ARG8       -0.1245
      2  CA        25.5820   24.7810    6.3460 C.3     8  ARG8        0.1563
      3  C         25.9010   26.1910    6.8270 C.2     8  ARG8        0.2260
      4  O         26.8740   26.3940    7.5550 O.2     8  ARG8       -0.2867
      5  CB        24.9370   23.9910    7.4820 C.3     8  ARG8        0.0307
      6  CG        24.3710   22.6490    7.0610 C.3     8  ARG8        0.0489
      7  CD        23.6400   21.9840    8.2180 C.3     8  ARG8        0.2205
      8  NE        22.9170   20.7920    7.7880 N.pl3   8  ARG8       -0.0865
      9  CZ        22.1790   20.0360    8.5940 C.cat   8  ARG8        0.5346
     10  NH1       22.0640   20.3480    9.8790 N.pl3   8  ARG8        0.1354
     11  NH2       21.5510   18.9700    8.1160 N.pl3   8  ARG8        0.1354
     12  N         20.7660   28.5270   11.7350 N.3    23  LEU23      -0.1245
     13  CA        20.9620   28.3850   10.3010 C.3    23  LEU23       0.1561
     14  C         20.2630   29.4950    9.5060 C.2    23  LEU23       0.2260
     15  O         19.0820   29.7780    9.7310 O.2    23  LEU23      -0.2867
     16  CB        20.4240   27.0170    9.8740 C.3    23  LEU23       0.0270
     17  CG        20.4940   26.5510    8.4210 C.3    23  LEU23       0.0019
     18  CD1       21.9400   26.4020    7.9900 C.3    23  LEU23       0.0001
     19  CD2       19.7640   25.2150    8.2990 C.3    23  LEU23       0.0001
     20  N         18.3740   30.3480    6.7450 N.3    25  ASP25      -0.1239
     21  CA        17.5710   29.5190    5.8500 C.3    25  ASP25       0.1674
     22  C         16.6500   30.2700    4.8910 C.2    25  ASP25       0.2266
     23  O         15.5570   30.6770    5.2790 O.2    25  ASP25      -0.2867
     24  CB        16.7410   28.5820    6.7290 C.3    25  ASP25       0.1410
     25  CG        16.1290   27.4400    5.9620 C.2    25  ASP25       0.3668
     26  OD1       16.0890   27.4950    4.7170 O.co2  25  ASP25      -0.2456
     27  OD2       15.6780   26.4880    6.6240 O.co2  25  ASP25      -0.2456
     28  N         14.9280   29.0770    2.6340 N.3    27  GLY27      -0.1210
     29  CA        13.7500   28.2730    2.3390 C.3    27  GLY27       0.1956
     30  C         12.6740   28.3380    3.4140 C.2    27  GLY27       0.2612
     31  O         11.6040   27.7200    3.2750 O.2    27  GLY27      -0.2717
     32  N         12.9540   29.0800    4.4890 N.am   28  ALA28      -0.1965
     33  CA        12.0190   29.2270    5.6060 C.3    28  ALA28       0.1728
     34  C         11.3160   30.5820    5.6240 C.2    28  ALA28       0.2616
     35  O         11.9700   31.6250    5.6760 O.2    28  ALA28      -0.2715
     36  CB        12.7570   29.0280    6.9280 C.3    28  ALA28       0.0334
     37  N          9.9850   30.5670    5.5960 N.am   29  ASP29      -0.1957
     38  CA         9.2210   31.8110    5.6390 C.3    29  ASP29       0.1840
     39  C          9.3940   32.4670    7.0080 C.2    29  ASP29       0.2622
     40  O          9.5490   33.6840    7.1080 O.2    29  ASP29      -0.2715
     41  CB         7.7170   31.5620    5.4430 C.3    29  ASP29       0.1450
     42  CG         7.3620   31.0720    4.0520 C.2    29  ASP29       0.3671
     43  OD1        8.1850   31.1820    3.1210 O.co2  29  ASP29      -0.2456
     44  OD2        6.2270   30.5870    3.8940 O.co2  29  ASP29      -0.2456
     45  N          9.3650   31.6470    8.0560 N.am   30  ASP30      -0.1971
     46  CA         9.4620   32.1340    9.4330 C.3    30  ASP30       0.1709
     47  C         10.7150   31.6910   10.1770 C.2    30  ASP30       0.2293
     48  O         11.4480   30.8130    9.7340 O.2    30  ASP30      -0.2864
     49  CB         8.2500   31.6580   10.2410 C.3    30  ASP30       0.1436
     50  CG         6.9280   31.9820    9.5720 C.2    30  ASP30       0.3671
     51  OD1        6.6170   33.1810    9.4100 O.co2  30  ASP30      -0.2456
     52  OD2        6.1990   31.0310    9.2130 O.co2  30  ASP30      -0.2456
     53  N         12.1910   29.9320   13.4690 N.3    32  VAL32      -0.1245
     54  CA        11.7540   29.0050   14.5000 C.3    32  VAL32       0.1561
     55  C         12.9340   28.5280   15.3190 C.2    32  VAL32       0.2260
     56  O         13.9450   28.0870   14.7740 O.2    32  VAL32      -0.2867
     57  CB        10.9970   27.7970   13.8830 C.3    32  VAL32       0.0252
     58  CG1       11.8560   27.1130   12.8530 C.3    32  VAL32       0.0019
     59  CG2       10.5810   26.8180   14.9810 C.3    32  VAL32       0.0019
     60  N          3.1820   24.9380   11.7760 N.3    47  ILE47      -0.1231
     61  CA         3.9870   25.2570   10.6060 C.3    47  ILE47       0.1692
     62  C          4.3990   23.9500    9.9540 C.2    47  ILE47       0.2593
     63  O          4.6500   22.9620   10.6400 O.2    47  ILE47      -0.2718
     64  CB         5.2430   26.0880   10.9680 C.3    47  ILE47       0.0266
     65  CG1        6.0370   25.4020   12.0790 C.3    47  ILE47       0.0019
     66  CG2        4.8280   27.4910   11.3910 C.3    47  ILE47       0.0020
     67  CD1        7.3630   26.0930   12.3870 C.3    47  ILE47       0.0001
     68  N          4.4470   23.9400    8.6270 N.am   48  GLY48      -0.1942
     69  CA         4.8110   22.7290    7.9250 C.3    48  GLY48       0.2014
     70  C          6.1070   22.8330    7.1560 C.2    48  GLY48       0.2639
     71  O          6.4590   23.8940    6.6400 O.2    48  GLY48      -0.2714
     72  N          6.8240   21.7200    7.0930 N.am   49  GLY49      -0.1939
     73  CA         8.0740   21.6790    6.3630 C.3    49  GLY49       0.2014
     74  C          8.1950   20.3030    5.7500 C.2    49  GLY49       0.2638
     75  O          7.1910   19.6560    5.4580 O.2    49  GLY49      -0.2714
     76  N          9.4250   19.8510    5.5450 N.am   50  ILE50      -0.1977
     77  CA         9.6420   18.5220    5.0050 C.3    50  ILE50       0.1596
     78  C          9.3160   17.5810    6.1580 C.2    50  ILE50       0.2287
     79  O          9.8220   17.7580    7.2670 O.2    50  ILE50      -0.2864
     80  CB        11.1180   18.3190    4.5940 C.3    50  ILE50       0.0276
     81  CG1       11.4170   19.1110    3.3210 C.3    50  ILE50       0.0022
     82  CG2       11.4130   16.8420    4.4040 C.3    50  ILE50       0.0022
     83  CD1       10.6760   18.6090    2.1130 C.3    50  ILE50       0.0001
     84  N         14.4150   20.6610   15.0960 N.3    81  PRO81      -0.2102
     85  CA        15.7180   20.0230   15.3160 C.3    81  PRO81       0.1504
     86  C         16.9040   20.9870   15.2830 C.2    81  PRO81       0.2575
     87  O         17.9580   20.7020   15.8470 O.2    81  PRO81      -0.2718
     88  CB        15.7750   18.9750   14.2070 C.3    81  PRO81       0.0282
     89  CG        15.0090   19.6170   13.1060 C.3    81  PRO81       0.0208
     90  CD        13.8230   20.2250   13.8200 C.3    81  PRO81       0.0893
     91  N         16.7260   22.1290   14.6310 N.am   82  VAL82      -0.1980
     92  CA        17.7870   23.1240   14.5350 C.3    82  VAL82       0.1595
     93  C         17.1720   24.5230   14.5530 C.2    82  VAL82       0.2287
     94  O         16.0310   24.7110   14.1160 O.2    82  VAL82      -0.2864
     95  CB        18.6060   22.9330   13.2300 C.3    82  VAL82       0.0276
     96  CG1       17.6910   22.9890   12.0320 C.3    82  VAL82       0.0022
     97  CG2       19.6730   24.0040   13.1130 C.3    82  VAL82       0.0022
     98  N         16.3480   28.0040   13.2670 N.3    84  ILE84      -0.1245
     99  CA        16.2360   28.5150   11.9130 C.3    84  ILE84       0.1561
    100  C         15.9310   30.0030   11.8330 C.2    84  ILE84       0.2260
    101  O         14.9740   30.4760   12.4340 O.2    84  ILE84      -0.2867
    102  CB        15.1180   27.7530   11.1740 C.3    84  ILE84       0.0252
    103  CG1       15.4910   26.2750   11.0810 C.3    84  ILE84       0.0019
    104  CG2       14.8670   28.3650    9.8000 C.3    84  ILE84       0.0019
    105  CD1       14.3140   25.3880   10.7570 C.3    84  ILE84       0.0001
@<TRIPOS>BOND
     1    83    81    1
     2    29    28    1
     3    29    30    1
     4    43    42   ar
     5    31    30    2
     6    81    80    1
     7    30    32   am
     8    44    42   ar
     9    42    41    1
    10    82    80    1
    11    32    33    1
    12    80    77    1
    13    26    25   ar
    14    22    23    2
    15    22    21    1
    16    77    76    1
    17    77    78    1
    18    41    38    1
    19    75    74    2
    20    76    74   am
    21    37    34   am
    22    37    38    1
    23    33    34    1
    24    33    36    1
    25    34    35    2
    26    38    39    1
    27    74    73    1
    28    21    24    1
    29    21    20    1
    30     1     2    1
    31    25    27   ar
    32    25    24    1
    33    78    79    2
    34     2     3    1
    35     2     5    1
    36    73    72    1
    37    71    70    2
    38     3     4    2
    39    39    40    2
    40    39    45   am
    41     6     5    1
    42     6     7    1
    43    72    70   am
    44    70    69    1
    45     8     7    1
    46     8     9    2
    47    69    68    1
    48    18    17    1
    49    45    46    1
    50    11     9    1
    51    19    17    1
    52    17    16    1
    53     9    10    1
    54    68    62   am
    55    52    50   ar
    56    51    50   ar
    57    46    47    1
    58    46    49    1
    59    14    15    2
    60    14    13    1
    61    50    49    1
    62    48    47    2
    63   104   102    1
    64    16    13    1
    65    62    61    1
    66    62    63    2
    67    13    12    1
    68    61    64    1
    69    61    60    1
    70   105   103    1
    71    64    66    1
    72    64    65    1
    73   103   102    1
    74   102    99    1
    75   100    99    1
    76   100   101    2
    77    99    98    1
    78    96    95    1
    79    65    67    1
    80    58    57    1
    81    89    90    1
    82    89    88    1
    83    97    95    1
    84    95    92    1
    85    53    54    1
    86    90    84    1
    87    57    54    1
    88    57    59    1
    89    94    93    2
    90    88    85    1
    91    54    55    1
    92    92    93    1
    93    92    91    1
    94    91    86   am
    95    56    55    2
    96    84    85    1
    97    86    85    1
    98    86    87    2
