@<TRIPOS>MOLECULE
tmp/1ec1B00.pdb
 116 109 0 0 0
SMALL
GASTEIGER

@<TRIPOS>ATOM
      1  N          9.4230   34.4300   -1.4820 N.3     8  ARG8       -0.1245
      2  CA        10.1610   33.1820   -1.6110 C.3     8  ARG8        0.1563
      3  C         11.0720   33.2430   -2.8290 C.2     8  ARG8        0.2260
      4  O         10.6660   33.6950   -3.8960 O.2     8  ARG8       -0.2867
      5  CB         9.2040   32.0020   -1.7590 C.3     8  ARG8        0.0307
      6  CG         8.4280   31.6990   -0.5080 C.3     8  ARG8        0.0489
      7  CD         7.5090   30.5130   -0.7060 C.3     8  ARG8        0.2205
      8  NE         6.7850   30.2000    0.5220 N.pl3   8  ARG8       -0.0865
      9  CZ         5.9340   29.1870    0.6460 C.cat   8  ARG8        0.5346
     10  NH1        5.7020   28.3870   -0.3870 N.pl3   8  ARG8        0.1354
     11  NH2        5.3100   28.9780    1.7950 N.pl3   8  ARG8        0.1354
     12  N         12.6090   26.3370   -5.2280 N.3    23  LEU23      -0.1245
     13  CA        13.0510   27.2650   -4.2110 C.3    23  LEU23       0.1561
     14  C         14.5640   27.1770   -3.9990 C.2    23  LEU23       0.2260
     15  O         15.1050   26.0820   -3.8440 O.2    23  LEU23      -0.2867
     16  CB        12.3110   26.9160   -2.9180 C.3    23  LEU23       0.0270
     17  CG        12.2420   27.8390   -1.7070 C.3    23  LEU23       0.0019
     18  CD1       11.5470   29.1430   -2.0750 C.3    23  LEU23       0.0001
     19  CD2       11.4630   27.1230   -0.6040 C.3    23  LEU23       0.0001
     20  N         17.0650   27.1180   -1.7350 N.3    25  ASP25      -0.1239
     21  CA        17.0020   26.8330   -0.3120 C.3    25  ASP25       0.1674
     22  C         18.3440   26.5960    0.3690 C.2    25  ASP25       0.2266
     23  O         18.8890   25.4910    0.3190 O.2    25  ASP25      -0.2867
     24  CB        16.1220   25.5950   -0.1500 C.3    25  ASP25       0.1410
     25  CG        15.5780   25.4330    1.2430 C.2    25  ASP25       0.3668
     26  OD1       16.2070   25.9270    2.2010 O.co2  25  ASP25      -0.2456
     27  OD2       14.5170   24.7910    1.3630 O.co2  25  ASP25      -0.2456
     28  N         18.8110   26.3560    3.4100 N.3    27  GLY27      -0.1210
     29  CA        18.6150   25.5240    4.5840 C.3    27  GLY27       0.1956
     30  C         18.5370   24.0430    4.2440 C.2    27  GLY27       0.2612
     31  O         18.3330   23.2040    5.1220 O.2    27  GLY27      -0.2717
     32  N         18.7090   23.7170    2.9690 N.am   28  ALA28      -0.1965
     33  CA        18.6360   22.3310    2.5280 C.3    28  ALA28       0.1728
     34  C         19.9830   21.7850    2.0690 C.2    28  ALA28       0.2616
     35  O         20.6160   22.3550    1.1820 O.2    28  ALA28      -0.2715
     36  CB        17.6140   22.2060    1.3940 C.3    28  ALA28       0.0334
     37  N         20.4260   20.6850    2.6760 N.am   29  ASP29      -0.1957
     38  CA        21.6910   20.0800    2.2710 C.3    29  ASP29       0.1840
     39  C         21.5060   19.5160    0.8650 C.2    29  ASP29       0.2622
     40  O         22.3960   19.6020    0.0200 O.2    29  ASP29      -0.2715
     41  CB        22.0830   18.9040    3.1750 C.3    29  ASP29       0.1450
     42  CG        22.4000   19.3190    4.5930 C.2    29  ASP29       0.3671
     43  OD1       22.6770   20.5120    4.8360 O.co2  29  ASP29      -0.2456
     44  OD2       22.3940   18.4250    5.4630 O.co2  29  ASP29      -0.2456
     45  N         20.3360   18.9270    0.6350 N.am   30  ASP30      -0.1971
     46  CA        20.0460   18.2950   -0.6450 C.3    30  ASP30       0.1709
     47  C         18.9420   18.9450   -1.4480 C.2    30  ASP30       0.2293
     48  O         18.1540   19.7500   -0.9390 O.2    30  ASP30      -0.2864
     49  CB        19.6570   16.8330   -0.4300 C.3    30  ASP30       0.1436
     50  CG        20.6100   16.1040    0.4830 C.2    30  ASP30       0.3671
     51  OD1       21.8290   16.2690    0.3160 O.co2  30  ASP30      -0.2456
     52  OD2       20.1370   15.3540    1.3600 O.co2  30  ASP30      -0.2456
     53  N         15.6010   18.3620   -3.3540 N.3    32  VAL32      -0.1245
     54  CA        14.4850   17.4360   -3.3110 C.3    32  VAL32       0.1561
     55  C         13.3970   17.9380   -4.2370 C.2    32  VAL32       0.2260
     56  O         12.9440   19.0710   -4.1120 O.2    32  VAL32      -0.2867
     57  CB        13.9080   17.3350   -1.8900 C.3    32  VAL32       0.0252
     58  CG1       12.9450   16.1520   -1.8080 C.3    32  VAL32       0.0019
     59  CG2       15.0480   17.2050   -0.8720 C.3    32  VAL32       0.0019
     60  N         15.7790   11.5400    4.6060 N.3    47  ILE47      -0.1231
     61  CA        16.1990   12.9130    4.8420 C.3    47  ILE47       0.1692
     62  C         15.2800   13.4900    5.9060 C.2    47  ILE47       0.2593
     63  O         14.0840   13.1900    5.9420 O.2    47  ILE47      -0.2718
     64  CB        16.1210   13.7910    3.5570 C.3    47  ILE47       0.0266
     65  CG1       14.6900   13.8280    3.0220 C.3    47  ILE47       0.0019
     66  CG2       17.0850   13.2580    2.5020 C.3    47  ILE47       0.0020
     67  CD1       14.5100   14.7470    1.8120 C.3    47  ILE47       0.0001
     68  N         15.8500   14.3090    6.7800 N.am   48  GLY48      -0.1942
     69  CA        15.0620   14.8960    7.8410 C.3    48  GLY48       0.2014
     70  C         14.7110   16.3420    7.5730 C.2    48  GLY48       0.2639
     71  O         15.5160   17.1080    7.0350 O.2    48  GLY48      -0.2714
     72  N         13.4880   16.7030    7.9280 N.am   49  GLY49      -0.1939
     73  CA        13.0270   18.0620    7.7530 C.3    49  GLY49       0.2014
     74  C         12.5660   18.5200    9.1170 C.2    49  GLY49       0.2638
     75  O         12.8030   17.8310   10.1150 O.2    49  GLY49      -0.2714
     76  N         11.8930   19.6610    9.1740 N.am   50  ILE50      -0.1977
     77  CA        11.4130   20.1760   10.4470 C.3    50  ILE50       0.1596
     78  C         10.2970   19.3010   11.0320 C.2    50  ILE50       0.2287
     79  O         10.1390   19.2170   12.2460 O.2    50  ILE50      -0.2864
     80  CB        10.8980   21.6310   10.2950 C.3    50  ILE50       0.0276
     81  CG1       10.6970   22.2550   11.6770 C.3    50  ILE50       0.0022
     82  CG2        9.5880   21.6460    9.5120 C.3    50  ILE50       0.0022
     83  CD1       10.3950   23.7460   11.6410 C.3    50  ILE50       0.0001
     84  N         11.1520   12.7270    9.2150 N.3    53  PHE53      -0.1241
     85  CA        11.8630   12.1780    8.0680 C.3    53  PHE53       0.1605
     86  C         10.9320   11.6640    6.9970 C.2    53  PHE53       0.2264
     87  O          9.7710   11.3430    7.2600 O.2    53  PHE53      -0.2867
     88  CB        12.8030   11.0520    8.5070 C.3    53  PHE53       0.0534
     89  CG        13.9560   11.5230    9.3430 C.ar   53  PHE53      -0.0203
     90  CD1       13.7610   11.9200   10.6580 C.ar   53  PHE53      -0.0042
     91  CD2       15.2320   11.6200    8.7980 C.ar   53  PHE53      -0.0042
     92  CE1       14.8210   12.4130   11.4210 C.ar   53  PHE53      -0.0003
     93  CE2       16.2960   12.1110    9.5520 C.ar   53  PHE53      -0.0003
     94  CZ        16.0880   12.5090   10.8650 C.ar   53  PHE53      -0.0000
     95  N          6.5210   19.3100   -0.4280 N.3    81  PRO81      -0.2102
     96  CA         5.5200   20.3340   -0.7380 C.3    81  PRO81       0.1504
     97  C          5.9360   21.2280   -1.8990 C.2    81  PRO81       0.2575
     98  O          5.0930   21.7360   -2.6430 O.2    81  PRO81      -0.2718
     99  CB         5.4160   21.1130    0.5670 C.3    81  PRO81       0.0282
    100  CG         5.7100   20.0750    1.5960 C.3    81  PRO81       0.0208
    101  CD         6.8990   19.3720    0.9940 C.3    81  PRO81       0.0893
    102  N          7.2430   21.4240   -2.0380 N.am   82  VAL82      -0.1980
    103  CA         7.7870   22.2680   -3.0890 C.3    82  VAL82       0.1595
    104  C          9.1310   21.7400   -3.5750 C.2    82  VAL82       0.2287
    105  O          9.8240   21.0090   -2.8640 O.2    82  VAL82      -0.2864
    106  CB         7.9980   23.7130   -2.5950 C.3    82  VAL82       0.0276
    107  CG1        6.6860   24.3120   -2.1460 C.3    82  VAL82       0.0022
    108  CG2        9.0110   23.7310   -1.4510 C.3    82  VAL82       0.0022
    109  N         12.8060   21.7960   -4.0370 N.3    84  ILE84      -0.1245
    110  CA        13.8720   22.4200   -3.2720 C.3    84  ILE84       0.1561
    111  C         15.2280   22.2700   -3.9380 C.2    84  ILE84       0.2260
    112  O         15.6600   21.1580   -4.2240 O.2    84  ILE84      -0.2867
    113  CB        13.9630   21.7860   -1.8620 C.3    84  ILE84       0.0252
    114  CG1       12.6580   22.0360   -1.0990 C.3    84  ILE84       0.0019
    115  CG2       15.1650   22.3520   -1.1050 C.3    84  ILE84       0.0019
    116  CD1       12.5680   21.3050    0.2270 C.3    84  ILE84       0.0001
@<TRIPOS>BOND
     1    12    13    1
     2    55    56    2
     3    55    54    1
     4   112   111    2
     5    13    14    1
     6    13    16    1
     7   109   110    1
     8    14    15    2
     9   111   110    1
    10     4     3    2
    11   104   103    1
    12   104   105    2
    13    53    54    1
    14    54    57    1
    15   110   113    1
    16   103   106    1
    17   103   102    1
    18    16    17    1
    19     3     2    1
    20    98    97    2
    21   106   107    1
    22   106   108    1
    23    18    17    1
    24   102    97   am
    25    97    96    1
    26    57    58    1
    27    57    59    1
    28   113   115    1
    29   113   114    1
    30     5     2    1
    31     5     6    1
    32    20    21    1
    33    17    19    1
    34     2     1    1
    35    47    48    2
    36    47    46    1
    37   114   116    1
    38    96    95    1
    39    96    99    1
    40     7     6    1
    41     7     8    1
    42    46    49    1
    43    46    45    1
    44    49    50    1
    45    95   101    1
    46    10     9    1
    47    21    24    1
    48    21    22    1
    49    24    25    1
    50    40    39    2
    51    51    50   ar
    52    23    22    2
    53    50    52   ar
    54     8     9    2
    55    99   100    1
    56    45    39   am
    57     9    11    1
    58    39    38    1
    59   101   100    1
    60    35    34    2
    61    25    27   ar
    62    25    26   ar
    63    36    33    1
    64    67    65    1
    65    34    33    1
    66    34    37   am
    67    38    37    1
    68    38    41    1
    69    66    64    1
    70    33    32    1
    71    32    30   am
    72    65    64    1
    73    41    42    1
    74    28    29    1
    75    64    61    1
    76    30    29    1
    77    30    31    2
    78    42    43   ar
    79    42    44   ar
    80    60    61    1
    81    61    62    1
    82    62    63    2
    83    62    68   am
    84    68    69    1
    85    86    87    2
    86    86    85    1
    87    71    70    2
    88    70    69    1
    89    70    72   am
    90    73    72    1
    91    73    74    1
    92    85    88    1
    93    85    84    1
    94    88    89    1
    95    91    89   ar
    96    91    93   ar
    97    74    76   am
    98    74    75    2
    99    76    77    1
   100    89    90   ar
   101    82    80    1
   102    93    94   ar
   103    80    77    1
   104    80    81    1
   105    77    78    1
   106    90    92   ar
   107    94    92   ar
   108    78    79    2
   109    83    81    1
