@<TRIPOS>MOLECULE
tmp/1ec2B00.pdb
 116 109 0 0 0
SMALL
GASTEIGER

@<TRIPOS>ATOM
      1  N          9.3990   34.6100   -1.5090 N.3     8  ARG8       -0.1245
      2  CA        10.1580   33.3700   -1.5890 C.3     8  ARG8        0.1563
      3  C         11.0490   33.4650   -2.8200 C.2     8  ARG8        0.2260
      4  O         10.6270   33.9790   -3.8550 O.2     8  ARG8       -0.2867
      5  CB         9.2200   32.1700   -1.7180 C.3     8  ARG8        0.0307
      6  CG         8.3900   31.9240   -0.4760 C.3     8  ARG8        0.0489
      7  CD         7.5130   30.7010   -0.6450 C.3     8  ARG8        0.2205
      8  NE         6.8010   30.3900    0.5830 N.pl3   8  ARG8       -0.0865
      9  CZ         5.8250   29.4930    0.6750 C.cat   8  ARG8        0.5346
     10  NH1        5.4430   28.8110   -0.3980 N.pl3   8  ARG8        0.1354
     11  NH2        5.2230   29.2900    1.8380 N.pl3   8  ARG8        0.1354
     12  N         12.6100   26.5200   -5.2390 N.3    23  LEU23      -0.1245
     13  CA        13.0620   27.4570   -4.2310 C.3    23  LEU23       0.1561
     14  C         14.5780   27.3920   -3.9980 C.2    23  LEU23       0.2260
     15  O         15.1270   26.3100   -3.7730 O.2    23  LEU23      -0.2867
     16  CB        12.2970   27.1300   -2.9420 C.3    23  LEU23       0.0270
     17  CG        12.2970   28.0130   -1.6990 C.3    23  LEU23       0.0019
     18  CD1       11.7390   29.3890   -2.0310 C.3    23  LEU23       0.0001
     19  CD2       11.4370   27.3380   -0.6220 C.3    23  LEU23       0.0001
     20  N         17.1560   27.3330   -1.7420 N.3    25  ASP25      -0.1239
     21  CA        17.0830   27.0770   -0.3130 C.3    25  ASP25       0.1674
     22  C         18.4050   26.8480    0.4140 C.2    25  ASP25       0.2266
     23  O         18.9290   25.7360    0.4180 O.2    25  ASP25      -0.2867
     24  CB        16.1830   25.8570   -0.1250 C.3    25  ASP25       0.1410
     25  CG        15.7160   25.6850    1.2930 C.2    25  ASP25       0.3668
     26  OD1       16.3760   26.2170    2.2120 O.co2  25  ASP25      -0.2456
     27  OD2       14.6830   25.0070    1.4730 O.co2  25  ASP25      -0.2456
     28  N         18.8670   26.5310    3.4430 N.3    27  GLY27      -0.1210
     29  CA        18.6940   25.6850    4.6140 C.3    27  GLY27       0.1956
     30  C         18.6000   24.2000    4.2850 C.2    27  GLY27       0.2612
     31  O         18.3300   23.3710    5.1630 O.2    27  GLY27      -0.2717
     32  N         18.8300   23.8580    3.0220 N.am   28  ALA28      -0.1965
     33  CA        18.7640   22.4670    2.5940 C.3    28  ALA28       0.1728
     34  C         20.1130   21.9520    2.1200 C.2    28  ALA28       0.2616
     35  O         20.7380   22.5420    1.2410 O.2    28  ALA28      -0.2715
     36  CB        17.7250   22.3180    1.4750 C.3    28  ALA28       0.0334
     37  N         20.5760   20.8580    2.7210 N.am   29  ASP29      -0.1957
     38  CA        21.8410   20.2630    2.3090 C.3    29  ASP29       0.1840
     39  C         21.6620   19.6800    0.9010 C.2    29  ASP29       0.2622
     40  O         22.5550   19.7630    0.0540 O.2    29  ASP29      -0.2715
     41  CB        22.2380   19.0950    3.2220 C.3    29  ASP29       0.1450
     42  CG        22.5260   19.5110    4.6540 C.2    29  ASP29       0.3671
     43  OD1       22.6340   20.7190    4.9420 O.co2  29  ASP29      -0.2456
     44  OD2       22.6650   18.5910    5.4970 O.co2  29  ASP29      -0.2456
     45  N         20.4960   19.0840    0.6720 N.am   30  ASP30      -0.1971
     46  CA        20.1970   18.4150   -0.5900 C.3    30  ASP30       0.1709
     47  C         19.0990   19.0570   -1.4240 C.2    30  ASP30       0.2293
     48  O         18.3190   19.8700   -0.9390 O.2    30  ASP30      -0.2864
     49  CB        19.7690   16.9700   -0.3260 C.3    30  ASP30       0.1436
     50  CG        20.7570   16.2030    0.5330 C.2    30  ASP30       0.3671
     51  OD1       21.9720   16.3140    0.2900 O.co2  30  ASP30      -0.2456
     52  OD2       20.3060   15.4740    1.4400 O.co2  30  ASP30      -0.2456
     53  N         15.6900   18.5070   -3.3810 N.3    32  VAL32      -0.1245
     54  CA        14.5560   17.5890   -3.3510 C.3    32  VAL32       0.1561
     55  C         13.4430   18.0860   -4.2580 C.2    32  VAL32       0.2260
     56  O         12.9940   19.2170   -4.1280 O.2    32  VAL32      -0.2867
     57  CB        14.0080   17.4590   -1.9190 C.3    32  VAL32       0.0252
     58  CG1       13.0890   16.2430   -1.8190 C.3    32  VAL32       0.0019
     59  CG2       15.1670   17.3550   -0.9360 C.3    32  VAL32       0.0019
     60  N         15.7990   11.5920    4.6240 N.3    47  ILE47      -0.1231
     61  CA        16.1900   12.9640    4.9220 C.3    47  ILE47       0.1692
     62  C         15.2790   13.5470    5.9840 C.2    47  ILE47       0.2593
     63  O         14.0870   13.2350    6.0380 O.2    47  ILE47      -0.2718
     64  CB        16.1560   13.8670    3.6640 C.3    47  ILE47       0.0266
     65  CG1       14.7340   13.9370    3.0970 C.3    47  ILE47       0.0019
     66  CG2       17.1410   13.3380    2.6280 C.3    47  ILE47       0.0020
     67  CD1       14.5990   14.8860    1.9090 C.3    47  ILE47       0.0001
     68  N         15.8520   14.3880    6.8370 N.am   48  GLY48      -0.1942
     69  CA        15.0820   14.9910    7.9020 C.3    48  GLY48       0.2014
     70  C         14.7910   16.4560    7.6610 C.2    48  GLY48       0.2639
     71  O         15.6360   17.1990    7.1640 O.2    48  GLY48      -0.2714
     72  N         13.5760   16.8640    8.0010 N.am   49  GLY49      -0.1939
     73  CA        13.1900   18.2510    7.8490 C.3    49  GLY49       0.2014
     74  C         12.6770   18.7310    9.1870 C.2    49  GLY49       0.2638
     75  O         12.9450   18.1120   10.2180 O.2    49  GLY49      -0.2714
     76  N         11.9220   19.8220    9.1740 N.am   50  ILE50      -0.1977
     77  CA        11.3700   20.3770   10.3960 C.3    50  ILE50       0.1596
     78  C         10.3510   19.4400   11.0600 C.2    50  ILE50       0.2287
     79  O         10.3240   19.3210   12.2830 O.2    50  ILE50      -0.2864
     80  CB        10.6940   21.7500   10.1200 C.3    50  ILE50       0.0276
     81  CG1       10.6130   22.5540   11.4110 C.3    50  ILE50       0.0022
     82  CG2        9.2980   21.5620    9.5600 C.3    50  ILE50       0.0022
     83  CD1       11.9630   22.8890   11.9660 C.3    50  ILE50       0.0001
     84  N         11.2380   12.8520    9.3630 N.3    53  PHE53      -0.1241
     85  CA        11.9640   12.3110    8.2240 C.3    53  PHE53       0.1605
     86  C         11.0330   11.7410    7.1800 C.2    53  PHE53       0.2264
     87  O          9.9260   11.3030    7.4930 O.2    53  PHE53      -0.2867
     88  CB        12.9350   11.2200    8.6740 C.3    53  PHE53       0.0534
     89  CG        13.9860   11.7040    9.6210 C.ar   53  PHE53      -0.0203
     90  CD1       13.6550   12.0660   10.9220 C.ar   53  PHE53      -0.0042
     91  CD2       15.3070   11.8240    9.2080 C.ar   53  PHE53      -0.0042
     92  CE1       14.6270   12.5430   11.8010 C.ar   53  PHE53      -0.0003
     93  CE2       16.2880   12.3000   10.0770 C.ar   53  PHE53      -0.0003
     94  CZ        15.9490   12.6610   11.3740 C.ar   53  PHE53      -0.0000
     95  N          6.5500   19.3910   -0.3620 N.3    81  PRO81      -0.2102
     96  CA         5.5490   20.4210   -0.6490 C.3    81  PRO81       0.1504
     97  C          5.9660   21.3210   -1.8110 C.2    81  PRO81       0.2575
     98  O          5.1240   21.8330   -2.5450 O.2    81  PRO81      -0.2718
     99  CB         5.4650   21.1950    0.6630 C.3    81  PRO81       0.0282
    100  CG         5.8080   20.1590    1.6940 C.3    81  PRO81       0.0208
    101  CD         6.9780   19.4560    1.0470 C.3    81  PRO81       0.0893
    102  N          7.2720   21.5200   -1.9640 N.am   82  VAL82      -0.1980
    103  CA         7.8010   22.3680   -3.0270 C.3    82  VAL82       0.1595
    104  C          9.1330   21.8470   -3.5370 C.2    82  VAL82       0.2287
    105  O          9.8310   21.1060   -2.8390 O.2    82  VAL82      -0.2864
    106  CB         8.0390   23.8190   -2.5400 C.3    82  VAL82       0.0276
    107  CG1        6.7300   24.4460   -2.0930 C.3    82  VAL82       0.0022
    108  CG2        9.0680   23.8250   -1.4020 C.3    82  VAL82       0.0022
    109  N         12.8540   21.9620   -4.1130 N.3    84  ILE84      -0.1245
    110  CA        13.9250   22.5950   -3.3500 C.3    84  ILE84       0.1561
    111  C         15.3030   22.4440   -3.9900 C.2    84  ILE84       0.2260
    112  O         15.7380   21.3300   -4.2680 O.2    84  ILE84      -0.2867
    113  CB        13.9970   21.9800   -1.9160 C.3    84  ILE84       0.0252
    114  CG1       12.7090   22.3000   -1.1510 C.3    84  ILE84       0.0019
    115  CG2       15.2180   22.5230   -1.1590 C.3    84  ILE84       0.0019
    116  CD1       12.5570   21.5230    0.1490 C.3    84  ILE84       0.0001
@<TRIPOS>BOND
     1    12    13    1
     2   112   111    2
     3    55    56    2
     4    55    54    1
     5    13    14    1
     6    13    16    1
     7   109   110    1
     8    14    15    2
     9   111   110    1
    10     4     3    2
    11   104   103    1
    12   104   105    2
    13    53    54    1
    14    54    57    1
    15   110   113    1
    16   103   106    1
    17   103   102    1
    18    16    17    1
    19     3     2    1
    20    98    97    2
    21   106   107    1
    22   106   108    1
    23    18    17    1
    24   102    97   am
    25    57    58    1
    26    57    59    1
    27   113   115    1
    28   113   114    1
    29    97    96    1
    30    20    21    1
    31     5     2    1
    32     5     6    1
    33    17    19    1
    34     2     1    1
    35    47    48    2
    36    47    46    1
    37   114   116    1
    38    96    95    1
    39    96    99    1
    40     7     6    1
    41     7     8    1
    42    46    49    1
    43    46    45    1
    44    10     9    1
    45    95   101    1
    46    49    50    1
    47    21    24    1
    48    21    22    1
    49    24    25    1
    50    40    39    2
    51    51    50   ar
    52    22    23    2
    53    50    52   ar
    54     8     9    2
    55    99   100    1
    56    45    39   am
    57     9    11    1
    58    39    38    1
    59   101   100    1
    60    35    34    2
    61    25    27   ar
    62    25    26   ar
    63    36    33    1
    64    67    65    1
    65    34    33    1
    66    34    37   am
    67    38    37    1
    68    38    41    1
    69    33    32    1
    70    66    64    1
    71    32    30   am
    72    65    64    1
    73    41    42    1
    74    28    29    1
    75    64    61    1
    76    30    29    1
    77    30    31    2
    78    60    61    1
    79    42    43   ar
    80    42    44   ar
    81    61    62    1
    82    62    63    2
    83    62    68   am
    84    68    69    1
    85    71    70    2
    86    86    87    2
    87    86    85    1
    88    70    69    1
    89    70    72   am
    90    73    72    1
    91    73    74    1
    92    85    88    1
    93    85    84    1
    94    88    89    1
    95    76    74   am
    96    76    77    1
    97    74    75    2
    98    91    89   ar
    99    91    93   ar
   100    82    80    1
   101    89    90   ar
   102    93    94   ar
   103    80    77    1
   104    80    81    1
   105    77    78    1
   106    90    92   ar
   107    78    79    2
   108    94    92   ar
   109    81    83    1
