@<TRIPOS>MOLECULE
tmp/1ec3A00.pdb
 123 116 0 0 0
SMALL
GASTEIGER

@<TRIPOS>ATOM
      1  N         27.0980   24.1960    5.8200 N.3     8  ARG8       -0.1245
      2  CA        25.8540   24.8060    6.2750 C.3     8  ARG8        0.1563
      3  C         26.1790   26.2030    6.7850 C.2     8  ARG8        0.2260
      4  O         27.1100   26.3830    7.5720 O.2     8  ARG8       -0.2867
      5  CB        25.2370   23.9800    7.4030 C.3     8  ARG8        0.0307
      6  CG        24.7090   22.6370    6.9460 C.3     8  ARG8        0.0489
      7  CD        24.2440   21.8020    8.1190 C.3     8  ARG8        0.2205
      8  NE        23.8090   20.4840    7.6850 N.pl3   8  ARG8       -0.0865
      9  CZ        23.7470   19.4210    8.4790 C.cat   8  ARG8        0.5346
     10  NH1       24.0950   19.5200    9.7560 N.pl3   8  ARG8        0.1354
     11  NH2       23.3390   18.2550    7.9940 N.pl3   8  ARG8        0.1354
     12  N         20.8390   28.5750   11.6420 N.3    23  LEU23      -0.1245
     13  CA        21.0290   28.3780   10.2160 C.3    23  LEU23       0.1561
     14  C         20.3660   29.4880    9.3960 C.2    23  LEU23       0.2260
     15  O         19.1860   29.7690    9.5850 O.2    23  LEU23      -0.2867
     16  CB        20.4250   27.0220    9.8330 C.3    23  LEU23       0.0270
     17  CG        20.5240   26.5360    8.3910 C.3    23  LEU23       0.0019
     18  CD1       21.9900   26.3000    8.0320 C.3    23  LEU23       0.0001
     19  CD2       19.7140   25.2490    8.2380 C.3    23  LEU23       0.0001
     20  N         18.5030   30.3810    6.6730 N.3    25  ASP25      -0.1239
     21  CA        17.6540   29.5300    5.8470 C.3    25  ASP25       0.1674
     22  C         16.7310   30.2350    4.8510 C.2    25  ASP25       0.2266
     23  O         15.6270   30.6360    5.2130 O.2    25  ASP25      -0.2867
     24  CB        16.8260   28.6950    6.8140 C.3    25  ASP25       0.1410
     25  CG        16.3060   27.4320    6.2020 C.2    25  ASP25       0.3668
     26  OD1       16.0950   27.4100    4.9750 O.co2  25  ASP25      -0.2456
     27  OD2       16.0980   26.4690    6.9700 O.co2  25  ASP25      -0.2456
     28  N         15.0280   28.9980    2.5850 N.3    27  GLY27      -0.1210
     29  CA        13.8660   28.1770    2.2810 C.3    27  GLY27       0.1956
     30  C         12.8220   28.2120    3.3860 C.2    27  GLY27       0.2612
     31  O         11.8180   27.4990    3.3200 O.2    27  GLY27      -0.2717
     32  N         13.0590   29.0330    4.4100 N.am   28  ALA28      -0.1965
     33  CA        12.1180   29.1470    5.5260 C.3    28  ALA28       0.1728
     34  C         11.3750   30.4810    5.5500 C.2    28  ALA28       0.2616
     35  O         12.0010   31.5410    5.6140 O.2    28  ALA28      -0.2715
     36  CB        12.8550   28.9580    6.8510 C.3    28  ALA28       0.0334
     37  N         10.0450   30.4260    5.5080 N.am   29  ASP29      -0.1957
     38  CA         9.2370   31.6490    5.5540 C.3    29  ASP29       0.1840
     39  C          9.4150   32.3120    6.9120 C.2    29  ASP29       0.2622
     40  O          9.5700   33.5270    7.0110 O.2    29  ASP29      -0.2715
     41  CB         7.7360   31.3490    5.4090 C.3    29  ASP29       0.1450
     42  CG         7.3330   30.9650    4.0040 C.2    29  ASP29       0.3671
     43  OD1        8.1580   31.0770    3.0770 O.co2  29  ASP29      -0.2456
     44  OD2        6.1630   30.5630    3.8350 O.co2  29  ASP29      -0.2456
     45  N          9.3790   31.4890    7.9560 N.am   30  ASP30      -0.1971
     46  CA         9.4790   31.9580    9.3310 C.3    30  ASP30       0.1709
     47  C         10.7720   31.5520   10.0230 C.2    30  ASP30       0.2293
     48  O         11.5310   30.7250    9.5330 O.2    30  ASP30      -0.2864
     49  CB         8.3040   31.4140   10.1600 C.3    30  ASP30       0.1436
     50  CG         6.9620   31.5880    9.4720 C.2    30  ASP30       0.3671
     51  OD1        6.6300   32.7230    9.0840 O.co2  30  ASP30      -0.2456
     52  OD2        6.2310   30.5840    9.3300 O.co2  30  ASP30      -0.2456
     53  N         12.3680   29.8260   13.2860 N.3    32  VAL32      -0.1245
     54  CA        11.9520   28.8470   14.2760 C.3    32  VAL32       0.1561
     55  C         13.1150   28.4660   15.1660 C.2    32  VAL32       0.2260
     56  O         14.1620   28.0390   14.6790 O.2    32  VAL32      -0.2867
     57  CB        11.4120   27.5710   13.5920 C.3    32  VAL32       0.0252
     58  CG1       10.6660   26.7110   14.6040 C.3    32  VAL32       0.0019
     59  CG2       10.5120   27.9490   12.4240 C.3    32  VAL32       0.0019
     60  N          3.2230   24.8960   11.6870 N.3    47  ILE47      -0.1231
     61  CA         4.0740   25.1860   10.5430 C.3    47  ILE47       0.1692
     62  C          4.5210   23.8660    9.9450 C.2    47  ILE47       0.2593
     63  O          4.7080   22.8780   10.6570 O.2    47  ILE47      -0.2718
     64  CB         5.3270   26.0150   10.9240 C.3    47  ILE47       0.0266
     65  CG1        6.0970   25.3190   12.0480 C.3    47  ILE47       0.0019
     66  CG2        4.9210   27.4220   11.3200 C.3    47  ILE47       0.0020
     67  CD1        7.4100   25.9970   12.3980 C.3    47  ILE47       0.0001
     68  N          4.6910   23.8430    8.6310 N.am   48  GLY48      -0.1942
     69  CA         5.0910   22.6100    7.9940 C.3    48  GLY48       0.2014
     70  C          6.2850   22.7550    7.0860 C.2    48  GLY48       0.2639
     71  O          6.6750   23.8540    6.6980 O.2    48  GLY48      -0.2714
     72  N          6.8690   21.6120    6.7670 N.am   49  GLY49      -0.1939
     73  CA         8.0170   21.5580    5.8900 C.3    49  GLY49       0.2014
     74  C          8.1960   20.0990    5.5480 C.2    49  GLY49       0.2638
     75  O          7.2190   19.3500    5.4860 O.2    49  GLY49      -0.2714
     76  N          9.4390   19.6910    5.3310 N.am   50  ILE50      -0.1977
     77  CA         9.7280   18.3060    5.0210 C.3    50  ILE50       0.1596
     78  C          9.3980   17.4760    6.2570 C.2    50  ILE50       0.2287
     79  O          9.8870   17.7590    7.3510 O.2    50  ILE50      -0.2864
     80  CB        11.2200   18.1140    4.6680 C.3    50  ILE50       0.0276
     81  CG1       11.5310   18.7910    3.3300 C.3    50  ILE50       0.0022
     82  CG2       11.5630   16.6330    4.6140 C.3    50  ILE50       0.0022
     83  CD1       10.8220   18.1740    2.1570 C.3    50  ILE50       0.0001
     84  N          3.9460   18.7010    9.6860 N.3    53  PHE53      -0.1241
     85  CA         3.7850   19.8740   10.5350 C.3    53  PHE53       0.1605
     86  C          4.1270   19.6800   12.0000 C.2    53  PHE53       0.2264
     87  O          4.0570   18.5740   12.5300 O.2    53  PHE53      -0.2867
     88  CB         2.3400   20.3770   10.4650 C.3    53  PHE53       0.0534
     89  CG         1.9600   20.9590    9.1440 C.ar   53  PHE53      -0.0203
     90  CD1        1.7750   20.1430    8.0340 C.ar   53  PHE53      -0.0042
     91  CD2        1.7620   22.3280    9.0120 C.ar   53  PHE53      -0.0042
     92  CE1        1.3960   20.6850    6.8130 C.ar   53  PHE53      -0.0003
     93  CE2        1.3840   22.8780    7.7960 C.ar   53  PHE53      -0.0003
     94  CZ         1.1990   22.0530    6.6910 C.ar   53  PHE53      -0.0000
     95  N         11.8840   22.0720   16.9390 N.3    80  THR80      -0.1204
     96  CA        12.6880   22.0210   15.7240 C.3    80  THR80       0.1979
     97  C         14.0660   21.4860   16.1220 C.2    80  THR80       0.2460
     98  O         14.6140   21.8730   17.1510 O.2    80  THR80      -0.2732
     99  CB        12.8600   23.4190   15.0860 C.3    80  THR80       0.1783
    100  OG1       13.6390   23.3000   13.8850 O.3    80  THR80      -0.2211
    101  CG2       13.5640   24.3680   16.0530 C.3    80  THR80       0.0376
    102  N         14.6420   20.5840   15.3150 N.am   81  PRO81      -0.2717
    103  CA        15.9600   20.0500   15.6700 C.3    81  PRO81       0.1535
    104  C         17.1250   21.0120   15.4410 C.2    81  PRO81       0.2598
    105  O         18.2400   20.7620   15.8920 O.2    81  PRO81      -0.2715
    106  CB        16.0610   18.7920   14.8150 C.3    81  PRO81       0.0310
    107  CG        15.3020   19.1580   13.6110 C.3    81  PRO81       0.0237
    108  CD        14.0910   19.8890   14.1410 C.3    81  PRO81       0.0939
    109  N         16.8690   22.1140   14.7440 N.am   82  VAL82      -0.1978
    110  CA        17.9140   23.0940   14.4840 C.3    82  VAL82       0.1596
    111  C         17.3160   24.4970   14.4790 C.2    82  VAL82       0.2287
    112  O         16.1740   24.6850   14.0570 O.2    82  VAL82      -0.2864
    113  CB        18.6100   22.8190   13.1240 C.3    82  VAL82       0.0276
    114  CG1       17.6200   22.9410   12.0060 C.3    82  VAL82       0.0022
    115  CG2       19.7560   23.7920   12.9070 C.3    82  VAL82       0.0022
    116  N         16.4940   27.9990   13.1770 N.3    84  ILE84      -0.1245
    117  CA        16.3590   28.5200   11.8280 C.3    84  ILE84       0.1561
    118  C         16.0510   30.0080   11.7550 C.2    84  ILE84       0.2260
    119  O         15.1040   30.4740   12.3700 O.2    84  ILE84      -0.2867
    120  CB        15.2210   27.7740   11.0920 C.3    84  ILE84       0.0252
    121  CG1       15.5410   26.2860   11.0110 C.3    84  ILE84       0.0019
    122  CG2       15.0090   28.3660    9.6980 C.3    84  ILE84       0.0019
    123  CD1       14.3470   25.4510   10.5830 C.3    84  ILE84       0.0001
@<TRIPOS>BOND
     1    83    81    1
     2    29    28    1
     3    29    30    1
     4    43    42   ar
     5    31    30    2
     6    81    80    1
     7    30    32   am
     8    44    42   ar
     9    42    41    1
    10    32    33    1
    11    82    80    1
    12    80    77    1
    13    22    23    2
    14    22    21    1
    15    26    25   ar
    16    77    76    1
    17    77    78    1
    18    76    74   am
    19    41    38    1
    20    75    74    2
    21    37    34   am
    22    37    38    1
    23    33    34    1
    24    33    36    1
    25    74    73    1
    26    34    35    2
    27    38    39    1
    28     1     2    1
    29    21    20    1
    30    21    24    1
    31    73    72    1
    32    25    24    1
    33    25    27   ar
    34    78    79    2
    35     2     3    1
    36     2     5    1
    37    94    92   ar
    38    94    93   ar
    39    71    70    2
    40    72    70   am
    41     3     4    2
    42    92    90   ar
    43    39    40    2
    44    39    45   am
    45     6     5    1
    46     6     7    1
    47    70    69    1
    48     8     7    1
    49     8     9    2
    50    93    91   ar
    51    45    46    1
    52    11     9    1
    53    69    68    1
    54    18    17    1
    55    90    89   ar
    56    19    17    1
    57    17    16    1
    58     9    10    1
    59    68    62   am
    60    91    89   ar
    61    51    50   ar
    62    89    88    1
    63    52    50   ar
    64    46    47    1
    65    46    49    1
    66    14    15    2
    67    14    13    1
    68    50    49    1
    69    48    47    2
    70    84    85    1
    71   122   120    1
    72    16    13    1
    73    62    61    1
    74    62    63    2
    75    13    12    1
    76    88    85    1
    77    85    86    1
    78    61    64    1
    79    61    60    1
    80   123   121    1
    81    64    66    1
    82    64    65    1
    83   121   120    1
    84   120   117    1
    85   118   117    1
    86   118   119    2
    87   117   116    1
    88    86    87    2
    89   114   113    1
    90    65    67    1
    91    59    57    1
    92   115   113    1
    93   113   110    1
    94    53    54    1
    95    57    54    1
    96    57    58    1
    97   107   108    1
    98   107   106    1
    99   100    99    1
   100   112   111    2
   101   108   102    1
   102    54    55    1
   103   111   110    1
   104   110   109    1
   105    56    55    2
   106   109   104   am
   107   106   103    1
   108    99    96    1
   109    99   101    1
   110   102   103    1
   111   102    97   am
   112   104   103    1
   113   104   105    2
   114    96    97    1
   115    96    95    1
   116    97    98    2
