@<TRIPOS>MOLECULE
tmp/1ecbB01.pdb
 174 172 0 0 0
SMALL
GASTEIGER

@<TRIPOS>ATOM
      1  N         -0.0020   24.8250   67.6480 N.3    74  TYR74      -0.1241
      2  CA         0.5780   23.8090   68.4990 C.3    74  TYR74       0.1605
      3  C          0.2320   22.5510   67.7270 C.2    74  TYR74       0.2264
      4  O         -0.8940   22.3920   67.2860 O.2    74  TYR74      -0.2867
      5  CB        -0.1480   23.8130   69.8410 C.3    74  TYR74       0.0534
      6  CG         0.4870   22.9220   70.8540 C.ar   74  TYR74      -0.0201
      7  CD1        1.6690   23.3020   71.4900 C.ar   74  TYR74      -0.0009
      8  CD2       -0.0350   21.6580   71.1170 C.ar   74  TYR74      -0.0009
      9  CE1        2.3220   22.4420   72.3440 C.ar   74  TYR74       0.0417
     10  CE2        0.6060   20.7850   71.9710 C.ar   74  TYR74       0.0417
     11  CZ         1.7880   21.1780   72.5750 C.ar   74  TYR74       0.1957
     12  OH         2.4780   20.2860   73.3590 O.3    74  TYR74      -0.2866
     13  N         -4.4200   25.3090   83.6460 N.3   254  PHE254     -0.1241
     14  CA        -3.1560   24.8730   83.0420 C.3   254  PHE254      0.1605
     15  C         -2.3190   26.0020   82.4160 C.2   254  PHE254      0.2264
     16  O         -1.1080   25.8950   82.3200 O.2   254  PHE254     -0.2867
     17  CB        -3.4260   23.7450   82.0370 C.3   254  PHE254      0.0534
     18  CG        -2.2660   22.8180   81.8410 C.ar  254  PHE254     -0.0203
     19  CD1       -1.9660   21.8570   82.7990 C.ar  254  PHE254     -0.0042
     20  CD2       -1.4550   22.9180   80.7100 C.ar  254  PHE254     -0.0042
     21  CE1       -0.8810   21.0110   82.6510 C.ar  254  PHE254     -0.0003
     22  CE2       -0.3620   22.0740   80.5480 C.ar  254  PHE254     -0.0003
     23  CZ        -0.0780   21.1180   81.5280 C.ar  254  PHE254     -0.0000
     24  N          1.5190   25.9250   83.3580 N.3   258  TYR258     -0.1227
     25  CA         2.5820   25.7100   82.4030 C.3   258  TYR258      0.1736
     26  C          2.5060   26.4770   81.0860 C.2   258  TYR258      0.2595
     27  O          3.4140   27.2360   80.7380 O.2   258  TYR258     -0.2718
     28  CB         2.5770   24.2040   82.1130 C.3   258  TYR258      0.0548
     29  CG         3.5880   23.7740   81.1230 C.ar  258  TYR258     -0.0200
     30  CD1        4.8880   23.4910   81.5230 C.ar  258  TYR258     -0.0009
     31  CD2        3.2660   23.6910   79.7620 C.ar  258  TYR258     -0.0009
     32  CE1        5.8560   23.1410   80.6030 C.ar  258  TYR258      0.0417
     33  CE2        4.2270   23.3430   78.8260 C.ar  258  TYR258      0.0417
     34  CZ         5.5230   23.0730   79.2620 C.ar  258  TYR258      0.1957
     35  OH         6.5070   22.7600   78.3690 O.3   258  TYR258     -0.2866
     36  N          1.4060   26.2480   80.3730 N.am  259  PHE259     -0.1976
     37  CA         1.1480   26.8120   79.0660 C.3   259  PHE259      0.1639
     38  C          1.3930   28.2970   78.7650 C.2   259  PHE259      0.2290
     39  O          1.8270   28.6440   77.6510 O.2   259  PHE259     -0.2864
     40  CB        -0.2370   26.3840   78.6030 C.3   259  PHE259      0.0560
     41  CG        -0.3010   26.1020   77.1270 C.ar  259  PHE259     -0.0200
     42  CD1        0.1000   24.8980   76.6190 C.ar  259  PHE259     -0.0042
     43  CD2       -0.6960   27.0520   76.2330 C.ar  259  PHE259     -0.0042
     44  CE1        0.1070   24.6640   75.2340 C.ar  259  PHE259     -0.0003
     45  CE2       -0.6810   26.7960   74.8510 C.ar  259  PHE259     -0.0003
     46  CZ        -0.2820   25.6120   74.3640 C.ar  259  PHE259     -0.0000
     47  N         13.5880   21.6740   88.0800 N.3   301  ILE301     -0.1231
     48  CA        13.7120   21.1090   86.7660 C.3   301  ILE301      0.1678
     49  C         13.1720   22.2530   85.9460 C.2   301  ILE301      0.2434
     50  O         11.9510   22.5360   85.9730 O.2   301  ILE301     -0.2733
     51  CB        12.8730   19.9160   86.6000 C.3   301  ILE301      0.0265
     52  CG1       13.3520   18.8600   87.5840 C.3   301  ILE301      0.0019
     53  CG2       13.0430   19.3920   85.2100 C.3   301  ILE301      0.0020
     54  CD1       12.6010   17.5280   87.4860 C.3   301  ILE301      0.0001
     55  N         14.0830   22.9540   85.2290 N.am  302  PRO302     -0.2718
     56  CA        13.9060   24.1170   84.3530 C.3   302  PRO302      0.1535
     57  C         12.9360   23.8170   83.2180 C.2   302  PRO302      0.2598
     58  O         12.8050   22.6480   82.8300 O.2   302  PRO302     -0.2715
     59  CB        15.3140   24.3360   83.7960 C.3   302  PRO302      0.0310
     60  CG        16.2120   23.5920   84.7160 C.3   302  PRO302      0.0237
     61  CD        15.4230   22.3750   85.0100 C.3   302  PRO302      0.0939
     62  N         12.2120   24.8300   82.7080 N.am  303  GLU303     -0.1964
     63  CA        12.2680   26.2270   83.1840 C.3   303  GLU303      0.1733
     64  C         11.1800   26.6210   84.1940 C.2   303  GLU303      0.2617
     65  O         11.4420   27.2870   85.1940 O.2   303  GLU303     -0.2715
     66  CB        12.1160   27.1960   82.0160 C.3   303  GLU303      0.0429
     67  CG        13.1860   27.1270   80.9540 C.3   303  GLU303      0.1163
     68  CD        13.0810   28.2910   79.9720 C.2   303  GLU303      0.3649
     69  OE1       13.2070   29.4520   80.4220 O.co2 303  GLU303     -0.2457
     70  OE2       12.8690   28.0520   78.7610 O.co2 303  GLU303     -0.2457
     71  N          9.9570   26.2310   83.8840 N.am  304  THR304     -0.1951
     72  CA         8.7950   26.5610   84.6730 C.3   304  THR304      0.1897
     73  C          9.0260   26.6170   86.1620 C.2   304  THR304      0.2313
     74  O          8.8030   27.6560   86.7870 O.2   304  THR304     -0.2863
     75  CB         7.6500   25.5620   84.4010 C.3   304  THR304      0.1794
     76  OG1        7.6500   25.1840   83.0140 O.3   304  THR304     -0.2208
     77  CG2        6.2970   26.1740   84.7740 C.3   304  THR304      0.0378
     78  N         17.8780   17.2140   76.2230 N.3   341  LYS341     -0.1245
     79  CA        17.1970   18.4150   76.6400 C.3   341  LYS341      0.1561
     80  C         17.8140   19.0180   77.8780 C.2   341  LYS341      0.2260
     81  O         17.9740   20.2270   77.9810 O.2   341  LYS341     -0.2867
     82  CB        15.7300   18.1000   76.9020 C.3   341  LYS341      0.0271
     83  CG        14.9270   17.7530   75.6560 C.3   341  LYS341      0.0035
     84  CD        13.5140   17.3440   76.0450 C.3   341  LYS341      0.0206
     85  CE        12.6110   17.1400   74.8330 C.3   341  LYS341      0.1093
     86  NZ        11.1950   16.8060   75.2270 N.3   341  LYS341     -0.1314
     87  N          9.2450   19.7650   89.7960 N.3   358  ASP358     -0.1225
     88  CA         8.7910   19.8270   88.3960 C.3   358  ASP358      0.1805
     89  C          7.3690   20.3920   88.3570 C.2   358  ASP358      0.2598
     90  O          6.6000   20.2280   89.3010 O.2   358  ASP358     -0.2718
     91  CB         8.7950   18.4240   87.7810 C.3   358  ASP358      0.1424
     92  CG         8.8320   18.4300   86.2590 C.2   358  ASP358      0.3668
     93  OD1        8.9600   19.5210   85.6750 O.co2 358  ASP358     -0.2456
     94  OD2        8.7560   17.3220   85.6570 O.co2 358  ASP358     -0.2456
     95  N          7.0160   21.0470   87.2550 N.am  359  ASP359     -0.1960
     96  CA         5.6870   21.6460   87.1120 C.3   359  ASP359      0.1840
     97  C          4.5760   20.6150   87.0320 C.2   359  ASP359      0.2623
     98  O          3.4850   20.8340   87.5700 O.2   359  ASP359     -0.2715
     99  CB         5.6290   22.5400   85.8820 C.3   359  ASP359      0.1450
    100  CG         6.0430   21.8100   84.6250 C.2   359  ASP359      0.3671
    101  OD1        7.2560   21.5730   84.4540 O.co2 359  ASP359     -0.2456
    102  OD2        5.1630   21.4650   83.8030 O.co2 359  ASP359     -0.2456
    103  N          4.8500   19.4950   86.3690 N.am  360  SER360     -0.1936
    104  CA         3.8490   18.4450   86.2310 C.3   360  SER360      0.2055
    105  C          4.5110   17.1670   85.8040 C.2   360  SER360      0.2643
    106  O          5.7390   17.1280   85.6070 O.2   360  SER360     -0.2714
    107  CB         2.8080   18.8040   85.1730 C.3   360  SER360      0.2130
    108  OG         3.3420   18.6900   83.8500 O.3   360  SER360     -0.2179
    109  N          3.6850   16.1310   85.6780 N.am  361  ILE361     -0.1963
    110  CA         4.1140   14.8090   85.2500 C.3   361  ILE361      0.1727
    111  C          2.9390   14.3690   84.4420 C.2   361  ILE361      0.2616
    112  O          1.8390   14.2010   84.9820 O.2   361  ILE361     -0.2715
    113  CB         4.2770   13.7840   86.4220 C.3   361  ILE361      0.0290
    114  CG1        5.2390   14.3150   87.5020 C.3   361  ILE361      0.0022
    115  CG2        4.7870   12.4450   85.8730 C.3   361  ILE361      0.0023
    116  CD1        5.4470   13.3710   88.6790 C.3   361  ILE361      0.0001
    117  N          3.1530   14.2390   83.1450 N.am  362  VAL362     -0.1963
    118  CA         2.0840   13.8380   82.2550 C.3   362  VAL362      0.1727
    119  C          2.1110   12.3290   82.0280 C.2   362  VAL362      0.2616
    120  O          1.1970   11.6020   82.4570 O.2   362  VAL362     -0.2715
    121  CB         2.1840   14.6060   80.9220 C.3   362  VAL362      0.0290
    122  CG1        0.9240   14.4080   80.0840 C.3   362  VAL362      0.0023
    123  CG2        2.4230   16.0860   81.1970 C.3   362  VAL362      0.0023
    124  N          3.1820   11.8740   81.3770 N.am  363  ARG363     -0.1963
    125  CA         3.4020   10.4620   81.0710 C.3   363  ARG363      0.1729
    126  C          4.3390    9.8180   82.0910 C.2   363  ARG363      0.2617
    127  O          4.2410    8.6270   82.3230 O.2   363  ARG363     -0.2715
    128  CB         4.0240   10.3090   79.6890 C.3   363  ARG363      0.0348
    129  CG         3.4110   11.1720   78.6230 C.3   363  ARG363      0.0492
    130  CD         4.2410   11.0620   77.3740 C.3   363  ARG363      0.2205
    131  NE         3.4710   10.5570   76.2360 N.pl3 363  ARG363     -0.0865
    132  CZ         2.9830   11.3190   75.2550 C.cat 363  ARG363      0.5346
    133  NH1        3.1770   12.6380   75.2570 N.pl3 363  ARG363      0.1354
    134  NH2        2.2970   10.7600   74.2680 N.pl3 363  ARG363      0.1354
    135  N          5.2490   10.5960   82.6820 N.am  364  GLY364     -0.1940
    136  CA         6.1750   10.0580   83.6710 C.3   364  GLY364      0.2014
    137  C          7.5850    9.7760   83.1540 C.2   364  GLY364      0.2640
    138  O          8.5530    9.6840   83.9340 O.2   364  GLY364     -0.2714
    139  N          7.7090    9.6790   81.8300 N.am  365  THR365     -0.1936
    140  CA         8.9820    9.4140   81.1640 C.3   365  THR365      0.2028
    141  C         10.0840   10.3950   81.5460 C.2   365  THR365      0.2643
    142  O         11.1770   10.0010   81.9340 O.2   365  THR365     -0.2714
    143  CB         8.8220    9.4840   79.6500 C.3   365  THR365      0.1808
    144  OG1        7.6800    8.7100   79.2460 O.3   365  THR365     -0.2208
    145  CG2       10.0820    8.9570   78.9770 C.3   365  THR365      0.0379
    146  N          9.8200   11.6690   81.3420 N.am  366  THR366     -0.1936
    147  CA        10.7670   12.7010   81.6870 C.3   366  THR366      0.2028
    148  C         11.1750   12.5480   83.1520 C.2   366  THR366      0.2642
    149  O         12.3640   12.4450   83.4630 O.2   366  THR366     -0.2714
    150  CB        10.1180   14.0950   81.4820 C.3   366  THR366      0.1808
    151  OG1        9.6890   14.2440   80.1140 O.3   366  THR366     -0.2208
    152  CG2       11.0700   15.2140   81.8680 C.3   366  THR366      0.0379
    153  N         10.1760   12.4660   84.0340 N.am  367  SER367     -0.1949
    154  CA        10.3950   12.3610   85.4840 C.3   367  SER367      0.1924
    155  C         11.2640   11.1690   85.8510 C.2   367  SER367      0.2314
    156  O         12.1960   11.2830   86.6340 O.2   367  SER367     -0.2863
    157  CB         9.0480   12.2850   86.1990 C.3   367  SER367      0.2116
    158  OG         8.0860   13.0110   85.4370 O.3   367  SER367     -0.2180
    159  N         -3.4530   20.1720   74.1070 N.3   400  ASP400     -0.1225
    160  CA        -3.3670   18.8370   73.5930 C.3   400  ASP400      0.1805
    161  C         -2.7540   17.9390   74.6260 C.2   400  ASP400      0.2597
    162  O         -1.6130   18.1360   75.0250 O.2   400  ASP400     -0.2718
    163  CB        -2.6060   18.7870   72.2700 C.3   400  ASP400      0.1424
    164  CG        -2.9620   17.5650   71.4770 C.2   400  ASP400      0.3668
    165  OD1       -4.1620   17.4480   71.1130 O.co2 400  ASP400     -0.2456
    166  OD2       -2.0770   16.6940   71.2890 O.co2 400  ASP400     -0.2456
    167  N         -3.5680   17.0380   75.1460 N.am  401  MET401     -0.1979
    168  CA        -3.1120   16.0910   76.1420 C.3   401  MET401      0.1605
    169  C         -3.0820   14.7040   75.5170 C.2   401  MET401      0.2287
    170  O         -3.8130   14.4180   74.5700 O.2   401  MET401     -0.2864
    171  CB        -4.0030   16.1180   77.4050 C.3   401  MET401      0.0413
    172  CG        -3.7000   17.2840   78.3390 C.3   401  MET401      0.0598
    173  SD        -1.8890   17.5010   78.6630 S.3   401  MET401     -0.1393
    174  CE        -1.8960   18.0700   80.3470 C.3   401  MET401      0.0692
@<TRIPOS>BOND
     1     4     3    2
     2     1     2    1
     3     3     2    1
     4     2     5    1
     5     5     6    1
     6     6     8   ar
     7     6     7   ar
     8   165   164   ar
     9     8    10   ar
    10   166   164   ar
    11   164   163    1
    12     7     9   ar
    13    10    11   ar
    14   163   160    1
    15     9    11   ar
    16    11    12    1
    17   160   159    1
    18   160   161    1
    19   134   132    1
    20    46    45   ar
    21    46    44   ar
    22   170   169    2
    23   161   162    2
    24   161   167   am
    25    85    86    1
    26    85    84    1
    27    45    43   ar
    28   167   168    1
    29    44    42   ar
    30   132   133    1
    31   132   131    2
    32   169   168    1
    33    83    84    1
    34    83    82    1
    35   168   171    1
    36    78    79    1
    37    43    41   ar
    38   131   130    1
    39    42    41   ar
    40    79    82    1
    41    79    80    1
    42    41    40    1
    43   130   129    1
    44   171   172    1
    45    39    38    2
    46    80    81    2
    47   172   173    1
    48    35    34    1
    49    40    37    1
    50   129   128    1
    51   173   174    1
    52    70    68   ar
    53    38    37    1
    54    33    34   ar
    55    33    31   ar
    56   145   143    1
    57    37    36    1
    58   144   143    1
    59    34    32   ar
    60   143   140    1
    61   128   125    1
    62    31    29   ar
    63    68    69   ar
    64    68    67    1
    65   122   121    1
    66   151   150    1
    67    36    26   am
    68    22    20   ar
    69    22    23   ar
    70    32    30   ar
    71    20    18   ar
    72    27    26    2
    73   121   123    1
    74   121   118    1
    75    67    66    1
    76   125   124    1
    77   125   126    1
    78    26    25    1
    79    29    30   ar
    80    29    28    1
    81   140   141    1
    82   140   139    1
    83   146   141   am
    84   146   147    1
    85   124   119   am
    86   150   147    1
    87   150   152    1
    88    23    21   ar
    89   141   142    2
    90   147   148    1
    91   139   137   am
    92    18    17    1
    93    18    19   ar
    94    66    63    1
    95   119   118    1
    96   119   120    2
    97    17    14    1
    98   126   127    2
    99   126   135   am
   100    28    25    1
   101   118   117    1
   102    16    15    2
   103    25    24    1
   104    15    14    1
   105    21    19   ar
   106   135   136    1
   107    62    63    1
   108    62    57   am
   109    58    57    2
   110    76    75    1
   111    14    13    1
   112   117   111   am
   113   148   149    2
   114   148   153   am
   115   137   136    1
   116   137   138    2
   117    63    64    1
   118    57    56    1
   119    59    56    1
   120    59    60    1
   121   102   100   ar
   122   108   107    1
   123    71    64   am
   124    71    72    1
   125   153   154    1
   126    64    65    2
   127    56    55    1
   128    75    72    1
   129    75    77    1
   130   111   112    2
   131   111   110    1
   132   101   100   ar
   133   100    99    1
   134    72    73    1
   135    60    61    1
   136    61    55    1
   137   107   104    1
   138    53    51    1
   139    55    49   am
   140   110   109    1
   141   110   113    1
   142   158   157    1
   143   154   155    1
   144   154   157    1
   145   106   105    2
   146    94    92   ar
   147    93    92   ar
   148   109   105   am
   149   105   104    1
   150   155   156    2
   151   115   113    1
   152    99    96    1
   153    49    50    2
   154    49    48    1
   155    73    74    2
   156   104   103    1
   157    92    91    1
   158   103    97   am
   159   113   114    1
   160    51    48    1
   161    51    52    1
   162    48    47    1
   163    97    96    1
   164    97    98    2
   165    96    95    1
   166    95    89   am
   167    54    52    1
   168   114   116    1
   169    91    88    1
   170    89    88    1
   171    89    90    2
   172    88    87    1
