@<TRIPOS>MOLECULE
tmp/1ecbB02.pdb
 129 127 0 0 0
SMALL
GASTEIGER

@<TRIPOS>ATOM
      1  N          6.1780   36.0700   67.4900 N.3    21  THR21      -0.1203
      2  CA         7.4080   35.4950   68.0590 C.3    21  THR21       0.1994
      3  C          7.3930   35.3860   69.5820 C.2    21  THR21       0.2617
      4  O          7.9310   34.4190   70.1250 O.2    21  THR21      -0.2717
      5  CB         8.7590   36.0930   67.5120 C.3    21  THR21       0.1784
      6  OG1        8.8180   37.5000   67.7110 O.3    21  THR21      -0.2211
      7  CG2        8.8900   35.8170   66.0370 C.3    21  THR21       0.0376
      8  N          6.7350   36.3260   70.2680 N.am   22  VAL22      -0.1979
      9  CA         6.6380   36.2550   71.7300 C.3    22  VAL22       0.1595
     10  C          5.4760   35.3480   72.1520 C.2    22  VAL22       0.2287
     11  O          5.2550   35.1080   73.3440 O.2    22  VAL22      -0.2864
     12  CB         6.4520   37.6120   72.3610 C.3    22  VAL22       0.0276
     13  CG1        7.6630   38.4430   72.1610 C.3    22  VAL22       0.0022
     14  CG2        5.2470   38.2840   71.7690 C.3    22  VAL22       0.0022
     15  N          5.7240   30.2040   71.9900 N.3    25  HIS25      -0.1241
     16  CA         5.7110   29.1140   72.9720 C.3    25  HIS25       0.1621
     17  C          4.4090   28.3280   72.9050 C.2    25  HIS25       0.2264
     18  O          4.3950   27.1590   73.2440 O.2    25  HIS25      -0.2867
     19  CB         5.9280   29.6580   74.3850 C.3    25  HIS25       0.0745
     20  CG         4.9320   30.6950   74.7910 C.ar   25  HIS25       0.0817
     21  ND1        5.0920   32.0380   74.4990 N.ar   25  HIS25      -0.2268
     22  CD2        3.7730   30.5950   75.4860 C.ar   25  HIS25       0.1154
     23  CE1        4.0740   32.7180   74.9990 C.ar   25  HIS25       0.1986
     24  NE2        3.2630   31.8650   75.6030 N.ar   25  HIS25      -0.2212
     25  N          1.5190   25.9250   83.3580 N.3   258  TYR258     -0.1227
     26  CA         2.5820   25.7100   82.4030 C.3   258  TYR258      0.1736
     27  C          2.5060   26.4770   81.0860 C.2   258  TYR258      0.2595
     28  O          3.4140   27.2360   80.7380 O.2   258  TYR258     -0.2718
     29  CB         2.5770   24.2040   82.1130 C.3   258  TYR258      0.0548
     30  CG         3.5880   23.7740   81.1230 C.ar  258  TYR258     -0.0200
     31  CD1        4.8880   23.4910   81.5230 C.ar  258  TYR258     -0.0009
     32  CD2        3.2660   23.6910   79.7620 C.ar  258  TYR258     -0.0009
     33  CE1        5.8560   23.1410   80.6030 C.ar  258  TYR258      0.0417
     34  CE2        4.2270   23.3430   78.8260 C.ar  258  TYR258      0.0417
     35  CZ         5.5230   23.0730   79.2620 C.ar  258  TYR258      0.1957
     36  OH         6.5070   22.7600   78.3690 O.3   258  TYR258     -0.2866
     37  N          1.4060   26.2480   80.3730 N.am  259  PHE259     -0.1962
     38  CA         1.1480   26.8120   79.0660 C.3   259  PHE259      0.1771
     39  C          1.3930   28.2970   78.7650 C.2   259  PHE259      0.2619
     40  O          1.8270   28.6440   77.6510 O.2   259  PHE259     -0.2715
     41  CB        -0.2370   26.3840   78.6030 C.3   259  PHE259      0.0574
     42  CG        -0.3010   26.1020   77.1270 C.ar  259  PHE259     -0.0200
     43  CD1        0.1000   24.8980   76.6190 C.ar  259  PHE259     -0.0042
     44  CD2       -0.6960   27.0520   76.2330 C.ar  259  PHE259     -0.0042
     45  CE1        0.1070   24.6640   75.2340 C.ar  259  PHE259     -0.0003
     46  CE2       -0.6810   26.7960   74.8510 C.ar  259  PHE259     -0.0003
     47  CZ        -0.2820   25.6120   74.3640 C.ar  259  PHE259     -0.0000
     48  N          1.1480   29.1700   79.7390 N.am  260  ALA260     -0.1963
     49  CA         1.3320   30.6040   79.5290 C.3   260  ALA260      0.1728
     50  C          2.6840   31.1310   79.9980 C.2   260  ALA260      0.2616
     51  O          3.3220   30.5360   80.8640 O.2   260  ALA260     -0.2715
     52  CB         0.2230   31.3620   80.2080 C.3   260  ALA260      0.0334
     53  N          3.1120   32.2490   79.4220 N.am  261  ARG261     -0.1964
     54  CA         4.3670   32.8640   79.8010 C.3   261  ARG261      0.1714
     55  C          4.1950   33.5370   81.1460 C.2   261  ARG261      0.2458
     56  O          3.1880   34.1950   81.4000 O.2   261  ARG261     -0.2730
     57  CB         4.7560   33.9080   78.8030 C.3   261  ARG261      0.0347
     58  CG         5.8180   33.5220   77.8310 C.3   261  ARG261      0.0492
     59  CD         6.0880   34.8390   77.1960 C.3   261  ARG261      0.2205
     60  NE         7.1820   34.9330   76.2510 N.pl3 261  ARG261     -0.0865
     61  CZ         8.1050   35.8870   76.3160 C.cat 261  ARG261      0.5346
     62  NH1        8.0670   36.7930   77.2880 N.pl3 261  ARG261      0.1354
     63  NH2        9.0250   35.9650   75.3700 N.pl3 261  ARG261      0.1354
     64  N          5.2540   33.5360   81.9540 N.am  262  PRO262     -0.2727
     65  CA         5.1980   34.1350   83.2880 C.3   262  PRO262      0.1402
     66  C          4.9780   35.6330   83.3420 C.2   262  PRO262      0.2269
     67  O          4.4480   36.1490   84.3210 O.2   262  PRO262     -0.2865
     68  CB         6.5180   33.6960   83.9010 C.3   262  PRO262      0.0296
     69  CG         7.4260   33.7240   82.7000 C.3   262  PRO262      0.0237
     70  CD         6.6130   33.0480   81.6450 C.3   262  PRO262      0.0939
     71  N          2.5230   31.3190   89.9420 N.3   275  ARG275     -0.1245
     72  CA         3.5490   30.2760   89.9910 C.3   275  ARG275      0.1563
     73  C          4.3650   30.2950   91.3090 C.2   275  ARG275      0.2260
     74  O          4.6440   29.2570   91.9180 O.2   275  ARG275     -0.2867
     75  CB         4.4590   30.4040   88.7470 C.3   275  ARG275      0.0307
     76  CG         4.3190   29.2400   87.7240 C.3   275  ARG275      0.0489
     77  CD         3.6240   29.5840   86.3860 C.3   275  ARG275      0.2205
     78  NE         4.5680   29.7730   85.2870 N.pl3 275  ARG275     -0.0865
     79  CZ         4.3360   29.4920   84.0040 C.cat 275  ARG275      0.5346
     80  NH1        3.1800   28.9890   83.5770 N.pl3 275  ARG275      0.1354
     81  NH2        5.2910   29.7320   83.1250 N.pl3 275  ARG275      0.1354
     82  N         13.5880   21.6740   88.0800 N.3   301  ILE301     -0.1231
     83  CA        13.7120   21.1090   86.7660 C.3   301  ILE301      0.1678
     84  C         13.1720   22.2530   85.9460 C.2   301  ILE301      0.2434
     85  O         11.9510   22.5360   85.9730 O.2   301  ILE301     -0.2733
     86  CB        12.8730   19.9160   86.6000 C.3   301  ILE301      0.0265
     87  CG1       13.3520   18.8600   87.5840 C.3   301  ILE301      0.0019
     88  CG2       13.0430   19.3920   85.2100 C.3   301  ILE301      0.0020
     89  CD1       12.6010   17.5280   87.4860 C.3   301  ILE301      0.0001
     90  N         14.0830   22.9540   85.2290 N.am  302  PRO302     -0.2718
     91  CA        13.9060   24.1170   84.3530 C.3   302  PRO302      0.1535
     92  C         12.9360   23.8170   83.2180 C.2   302  PRO302      0.2598
     93  O         12.8050   22.6480   82.8300 O.2   302  PRO302     -0.2715
     94  CB        15.3140   24.3360   83.7960 C.3   302  PRO302      0.0310
     95  CG        16.2120   23.5920   84.7160 C.3   302  PRO302      0.0237
     96  CD        15.4230   22.3750   85.0100 C.3   302  PRO302      0.0939
     97  N         12.2120   24.8300   82.7080 N.am  303  GLU303     -0.1964
     98  CA        12.2680   26.2270   83.1840 C.3   303  GLU303      0.1733
     99  C         11.1800   26.6210   84.1940 C.2   303  GLU303      0.2617
    100  O         11.4420   27.2870   85.1940 O.2   303  GLU303     -0.2715
    101  CB        12.1160   27.1960   82.0160 C.3   303  GLU303      0.0429
    102  CG        13.1860   27.1270   80.9540 C.3   303  GLU303      0.1163
    103  CD        13.0810   28.2910   79.9720 C.2   303  GLU303      0.3649
    104  OE1       13.2070   29.4520   80.4220 O.co2 303  GLU303     -0.2457
    105  OE2       12.8690   28.0520   78.7610 O.co2 303  GLU303     -0.2457
    106  N          9.9570   26.2310   83.8840 N.am  304  THR304     -0.1951
    107  CA         8.7950   26.5610   84.6730 C.3   304  THR304      0.1897
    108  C          9.0260   26.6170   86.1620 C.2   304  THR304      0.2313
    109  O          8.8030   27.6560   86.7870 O.2   304  THR304     -0.2863
    110  CB         7.6500   25.5620   84.4010 C.3   304  THR304      0.1794
    111  OG1        7.6500   25.1840   83.0140 O.3   304  THR304     -0.2208
    112  CG2        6.2970   26.1740   84.7740 C.3   304  THR304      0.0378
    113  N         19.0760   23.4660   81.1730 N.3   326  LYS326     -0.1245
    114  CA        18.3090   23.1280   79.9750 C.3   326  LYS326      0.1561
    115  C         19.0780   23.5590   78.7480 C.2   326  LYS326      0.2260
    116  O         19.5020   24.7160   78.6330 O.2   326  LYS326     -0.2867
    117  CB        16.9770   23.8510   80.0030 C.3   326  LYS326      0.0271
    118  CG        16.0000   23.4350   78.9540 C.3   326  LYS326      0.0035
    119  CD        14.7790   24.3540   79.0190 C.3   326  LYS326      0.0206
    120  CE        13.7780   24.0470   77.9110 C.3   326  LYS326      0.1093
    121  NZ        12.7140   25.0860   77.8160 N.3   326  LYS326     -0.1314
    122  N          7.0160   21.0470   87.2550 N.3   359  ASP359     -0.1239
    123  CA         5.6870   21.6460   87.1120 C.3   359  ASP359      0.1674
    124  C          4.5760   20.6150   87.0320 C.2   359  ASP359      0.2266
    125  O          3.4850   20.8340   87.5700 O.2   359  ASP359     -0.2867
    126  CB         5.6290   22.5400   85.8820 C.3   359  ASP359      0.1410
    127  CG         6.0430   21.8100   84.6250 C.2   359  ASP359      0.3668
    128  OD1        7.2560   21.5730   84.4540 O.co2 359  ASP359     -0.2456
    129  OD2        5.1630   21.4650   83.8030 O.co2 359  ASP359     -0.2456
@<TRIPOS>BOND
     1     7     5    1
     2     1     2    1
     3     5     6    1
     4     5     2    1
     5     2     3    1
     6     3     4    2
     7     3     8   am
     8     8     9    1
     9     9    10    1
    10     9    12    1
    11    14    12    1
    12    15    16    1
    13    10    11    2
    14    13    12    1
    15    17    16    1
    16    17    18    2
    17    16    19    1
    18    47    46   ar
    19    47    45   ar
    20    19    20    1
    21    21    20   ar
    22    21    23   ar
    23    20    22   ar
    24    46    44   ar
    25    23    24   ar
    26    45    43   ar
    27    63    61    1
    28    22    24   ar
    29    44    42   ar
    30    60    61    2
    31    60    59    1
    32    61    62    1
    33    43    42   ar
    34    42    41    1
    35    59    58    1
    36    40    39    2
    37   121   120    1
    38    58    57    1
    39   120   119    1
    40    36    35    1
    41    41    38    1
    42   116   115    2
    43   115   114    1
    44   105   103   ar
    45    39    38    1
    46    39    48   am
    47    57    54    1
    48    34    35   ar
    49    34    32   ar
    50   118   119    1
    51   118   117    1
    52    38    37    1
    53    35    33   ar
    54    53    54    1
    55    53    50   am
    56    49    48    1
    57    49    50    1
    58    49    52    1
    59    32    30   ar
    60    54    55    1
    61   103   104   ar
    62   103   102    1
    63   114   117    1
    64   114   113    1
    65    50    51    2
    66    37    27   am
    67    33    31   ar
    68    28    27    2
    69   102   101    1
    70    27    26    1
    71    30    31   ar
    72    30    29    1
    73    55    56    2
    74    55    64   am
    75    70    64    1
    76    70    69    1
    77    64    65    1
    78   101    98    1
    79    29    26    1
    80    26    25    1
    81    69    68    1
    82    97    98    1
    83    97    92   am
    84    93    92    2
    85   111   110    1
    86    81    79    1
    87    98    99    1
    88    92    91    1
    89    65    66    1
    90    65    68    1
    91    66    67    2
    92    80    79    1
    93    94    91    1
    94    94    95    1
    95   129   127   ar
    96   106    99   am
    97   106   107    1
    98    79    78    2
    99    99   100    2
   100    91    90    1
   101   110   107    1
   102   110   112    1
   103   128   127   ar
   104   127   126    1
   105   107   108    1
   106    95    96    1
   107    96    90    1
   108    88    86    1
   109    90    84   am
   110    78    77    1
   111   126   123    1
   112    84    85    2
   113    84    83    1
   114   108   109    2
   115    77    76    1
   116    86    83    1
   117    86    87    1
   118    83    82    1
   119   124   123    1
   120   124   125    2
   121   123   122    1
   122    89    87    1
   123    76    75    1
   124    75    72    1
   125    71    72    1
   126    72    73    1
   127    73    74    2
