@<TRIPOS>MOLECULE
tmp/1eccA00.pdb
 124 118 0 0 0
SMALL
GASTEIGER

@<TRIPOS>ATOM
      1  N         91.3430   24.2460   70.4200 N.3     1  CYS1       -0.1235
      2  CA        91.4090   22.8430   69.9550 C.3     1  CYS1        0.1677
      3  C         92.8520   22.5060   69.8510 C.2     1  CYS1        0.2270
      4  O         93.6600   23.4120   69.6990 O.2     1  CYS1       -0.2867
      5  CB        90.7970   22.6940   68.5740 C.3     1  CYS1        0.0956
      6  SG        89.0560   22.8350   68.5710 S.3     1  CYS1       -0.0801
      7  N         88.5540   18.9600   70.8370 N.3    73  ARG73      -0.1231
      8  CA        87.6910   20.0700   70.4440 C.3    73  ARG73       0.1694
      9  C         87.0730   21.0190   71.4920 C.2    73  ARG73       0.2592
     10  O         86.6020   20.6260   72.5750 O.2    73  ARG73      -0.2718
     11  CB        86.5860   19.5280   69.5310 C.3    73  ARG73       0.0321
     12  CG        85.6410   20.5790   68.9870 C.3    73  ARG73       0.0489
     13  CD        84.5230   19.9910   68.1470 C.3    73  ARG73       0.2205
     14  NE        83.7730   21.0390   67.4450 N.pl3  73  ARG73      -0.0865
     15  CZ        82.4460   21.0880   67.3350 C.cat  73  ARG73       0.5346
     16  NH1       81.6880   20.1490   67.8920 N.pl3  73  ARG73       0.1354
     17  NH2       81.8770   22.0450   66.6150 N.pl3  73  ARG73       0.1354
     18  N         87.0230   22.2770   71.0780 N.am   74  TYR74      -0.1976
     19  CA        86.4660   23.4010   71.8030 C.3    74  TYR74       0.1639
     20  C         85.6770   24.0140   70.6350 C.2    74  TYR74       0.2290
     21  O         86.2250   24.7260   69.7900 O.2    74  TYR74      -0.2864
     22  CB        87.6260   24.2920   72.2760 C.3    74  TYR74       0.0560
     23  CG        87.3220   25.7600   72.5200 C.ar   74  TYR74      -0.0198
     24  CD1       86.1860   26.1710   73.2320 C.ar   74  TYR74      -0.0009
     25  CD2       88.2170   26.7450   72.0830 C.ar   74  TYR74      -0.0009
     26  CE1       85.9530   27.5360   73.5000 C.ar   74  TYR74       0.0417
     27  CE2       87.9960   28.1040   72.3520 C.ar   74  TYR74       0.0417
     28  CZ        86.8730   28.4880   73.0590 C.ar   74  TYR74       0.1957
     29  OH        86.7020   29.8210   73.3340 O.3    74  TYR74      -0.2866
     30  N         83.7940   26.1460   68.0410 N.3    76  THR76      -0.1203
     31  CA        83.8460   27.5650   67.6820 C.3    76  THR76       0.1994
     32  C         82.9420   27.7940   66.4610 C.2    76  THR76       0.2617
     33  O         82.7380   28.9220   66.0170 O.2    76  THR76      -0.2717
     34  CB        85.2780   28.0200   67.3580 C.3    76  THR76       0.1784
     35  OG1       85.7810   27.2520   66.2660 O.3    76  THR76      -0.2211
     36  CG2       86.1690   27.8100   68.5500 C.3    76  THR76       0.0376
     37  N         82.4140   26.6980   65.9210 N.am   77  ALA77      -0.1979
     38  CA        81.5110   26.7220   64.7660 C.3    77  ALA77       0.1597
     39  C         80.5310   25.5350   64.8760 C.2    77  ALA77       0.2287
     40  O         80.6900   24.6700   65.7520 O.2    77  ALA77      -0.2864
     41  CB        82.3000   26.6590   63.4340 C.3    77  ALA77       0.0319
     42  N         80.2120   16.6440   64.8720 N.3    84  GLU84      -0.1245
     43  CA        81.1650   17.6720   64.4810 C.3    84  GLU84       0.1567
     44  C         82.4580   17.5020   65.2530 C.2    84  GLU84       0.2260
     45  O         83.2790   18.4050   65.3180 O.2    84  GLU84      -0.2867
     46  CB        80.5500   19.0540   64.6360 C.3    84  GLU84       0.0388
     47  CG        79.3440   19.1030   63.7380 C.3    84  GLU84       0.1160
     48  CD        78.6800   20.4470   63.6130 C.2    84  GLU84       0.3649
     49  OE1       79.3570   21.4800   63.7940 O.co2  84  GLU84      -0.2457
     50  OE2       77.4630   20.4610   63.3070 O.co2  84  GLU84      -0.2457
     51  N         86.0280   15.8090   65.7430 N.3    86  GLN86      -0.1245
     52  CA        87.0340   15.5630   64.7480 C.3    86  GLN86       0.1566
     53  C         87.9100   14.4190   65.1790 C.2    86  GLN86       0.2260
     54  O         88.0540   14.1700   66.3750 O.2    86  GLN86      -0.2867
     55  CB        87.8770   16.8220   64.5890 C.3    86  GLN86       0.0367
     56  CG        87.1000   18.0440   64.1790 C.3    86  GLN86       0.0905
     57  CD        88.0290   19.1210   63.7080 C.2    86  GLN86       0.2608
     58  OE1       89.0810   18.8190   63.1460 O.2    86  GLN86      -0.2717
     59  NE2       87.6800   20.3850   63.9600 N.am   86  GLN86      -0.0878
     60  N         91.4870   20.0350   62.2590 N.3   100  HIS100     -0.1226
     61  CA        91.7780   21.4590   62.1180 C.3   100  HIS100      0.1752
     62  C         91.5990   22.2270   63.4300 C.2   100  HIS100      0.2596
     63  O         90.6950   21.9260   64.2170 O.2   100  HIS100     -0.2718
     64  CB        90.8630   21.9760   60.9730 C.3   100  HIS100      0.0759
     65  CG        90.4480   23.4200   61.0460 C.ar  100  HIS100      0.0818
     66  ND1       89.1260   23.8140   60.9950 N.ar  100  HIS100     -0.2268
     67  CD2       91.1720   24.5650   61.0060 C.ar  100  HIS100      0.1154
     68  CE1       89.0510   25.1280   60.9080 C.ar  100  HIS100      0.1986
     69  NE2       90.2790   25.6120   60.9120 N.ar  100  HIS100     -0.2212
     70  N         92.5790   23.0760   63.7300 N.am  101  ASN101     -0.1960
     71  CA        92.5270   23.9790   64.8830 C.3   101  ASN101      0.1819
     72  C         92.4920   25.3640   64.2450 C.2   101  ASN101      0.2622
     73  O         93.4390   25.7820   63.5830 O.2   101  ASN101     -0.2715
     74  CB        93.7550   23.8890   65.7900 C.3   101  ASN101      0.1195
     75  CG        93.8400   25.0620   66.7860 C.2   101  ASN101      0.2630
     76  OD1       94.9250   25.4320   67.2400 O.2   101  ASN101     -0.2716
     77  ND2       92.6920   25.6480   67.1240 N.am  101  ASN101     -0.0877
     78  N         91.3360   25.9960   64.3180 N.am  102  GLY102     -0.1940
     79  CA        91.1880   27.3140   63.7560 C.3   102  GLY102      0.2014
     80  C         89.7510   27.5710   63.4140 C.2   102  GLY102      0.2638
     81  O         88.8580   26.8450   63.8510 O.2   102  GLY102     -0.2714
     82  N         89.5380   28.5510   62.5500 N.am  103  ASN103     -0.1972
     83  CA        88.2070   28.9160   62.1210 C.3   103  ASN103      0.1688
     84  C         88.3130   29.5430   60.7400 C.2   103  ASN103      0.2292
     85  O         89.2230   30.3040   60.4600 O.2   103  ASN103     -0.2864
     86  CB        87.6310   29.9050   63.1080 C.3   103  ASN103      0.1181
     87  CG        86.1780   30.1530   62.8890 C.2   103  ASN103      0.2629
     88  OD1       85.3720   29.2420   63.0120 O.2   103  ASN103     -0.2716
     89  ND2       85.8190   31.3990   62.5930 N.am  103  ASN103     -0.0877
     90  N         80.1650   22.2840   60.4420 N.3   126  SER126     -0.1202
     91  CA        81.5300   22.5410   60.8500 C.3   126  SER126      0.2020
     92  C         82.4000   22.9690   59.6880 C.2   126  SER126      0.2619
     93  O         82.5420   22.2470   58.7010 O.2   126  SER126     -0.2717
     94  CB        82.1400   21.3090   61.4960 C.3   126  SER126      0.2103
     95  OG        83.5380   21.4970   61.6750 O.3   126  SER126     -0.2182
     96  N         83.1030   24.0770   59.8800 N.am  127  ASP127     -0.1959
     97  CA        83.9780   24.6270   58.8530 C.3   127  ASP127      0.1840
     98  C         85.1550   23.7180   58.6240 C.2   127  ASP127      0.2622
     99  O         85.7570   23.7190   57.5500 O.2   127  ASP127     -0.2715
    100  CB        84.4540   26.0080   59.2590 C.3   127  ASP127      0.1450
    101  CG        85.1170   26.0070   60.6060 C.2   127  ASP127      0.3671
    102  OD1       84.4960   25.5030   61.5690 O.co2 127  ASP127     -0.2456
    103  OD2       86.2630   26.5040   60.6990 O.co2 127  ASP127     -0.2456
    104  N         85.5230   22.9700   59.6550 N.am  128  SER128     -0.1950
    105  CA        86.6240   22.0200   59.5230 C.3   128  SER128      0.1924
    106  C         86.2200   20.9950   58.4190 C.2   128  SER128      0.2314
    107  O         87.0350   20.6770   57.5320 O.2   128  SER128     -0.2863
    108  CB        86.8890   21.3190   60.8710 C.3   128  SER128      0.2116
    109  OG        86.9930   22.2660   61.9280 O.3   128  SER128     -0.2180
    110  N         95.5730   30.6390   76.4860 N.3   259  PHE259     -0.1241
    111  CA        95.3750   29.3610   75.8480 C.3   259  PHE259      0.1605
    112  C         96.4120   28.2350   75.9940 C.2   259  PHE259      0.2264
    113  O         96.1000   27.1380   76.4900 O.2   259  PHE259     -0.2867
    114  CB        94.9810   29.5740   74.3860 C.3   259  PHE259      0.0534
    115  CG        94.0020   28.5520   73.8790 C.ar  259  PHE259     -0.0203
    116  CD1       92.6680   28.6060   74.2620 C.ar  259  PHE259     -0.0042
    117  CD2       94.4240   27.5060   73.0490 C.ar  259  PHE259     -0.0042
    118  CE1       91.7570   27.6260   73.8230 C.ar  259  PHE259     -0.0003
    119  CE2       93.5290   26.5230   72.6040 C.ar  259  PHE259     -0.0003
    120  CZ        92.1930   26.5810   72.9910 C.ar  259  PHE259     -0.0000
    121  N         89.1130   30.5130   65.8160 N.3   406  GLY406     -0.1225
    122  CA        89.2350   29.2970   66.5800 C.3   406  GLY406      0.1811
    123  C         89.2530   29.5010   68.0800 C.2   406  GLY406      0.2280
    124  O         89.9310   28.7760   68.8110 O.2   406  GLY406     -0.2866
@<TRIPOS>BOND
     1   107   106    2
     2    99    98    2
     3   106   105    1
     4    98    97    1
     5    98   104   am
     6    93    92    2
     7    97   100    1
     8    97    96    1
     9   100   101    1
    10   105   104    1
    11   105   108    1
    12    92    96   am
    13    92    91    1
    14    90    91    1
    15    85    84    2
    16   101   103   ar
    17   101   102   ar
    18    84    83    1
    19    91    94    1
    20   108   109    1
    21    68    69   ar
    22    68    66   ar
    23    69    67   ar
    24    64    65    1
    25    64    61    1
    26    66    65   ar
    27    67    65   ar
    28    94    95    1
    29    61    60    1
    30    61    62    1
    31    83    82    1
    32    83    86    1
    33    82    80   am
    34    89    87   am
    35    87    88    2
    36    87    86    1
    37    58    57    2
    38    50    48   ar
    39    80    79    1
    40    80    81    2
    41    62    70   am
    42    62    63    2
    43    41    38    1
    44    73    72    2
    45    48    47    1
    46    48    49   ar
    47    57    59   am
    48    57    56    1
    49    70    71    1
    50    47    46    1
    51    79    78    1
    52    56    55    1
    53    72    78   am
    54    72    71    1
    55    43    46    1
    56    43    42    1
    57    43    44    1
    58    55    52    1
    59    52    53    1
    60    52    51    1
    61    38    39    1
    62    38    37    1
    63    39    40    2
    64    71    74    1
    65    53    54    2
    66    44    45    2
    67    74    75    1
    68   121   122    1
    69    37    32   am
    70    33    32    2
    71    35    34    1
    72    32    31    1
    73   122   123    1
    74    17    15    1
    75    75    77   am
    76    75    76    2
    77    15    14    2
    78    15    16    1
    79    34    31    1
    80    34    36    1
    81    14    13    1
    82    31    30    1
    83   123   124    2
    84    13    12    1
    85     6     5    1
    86     5     2    1
    87    12    11    1
    88    11     8    1
    89     4     3    2
    90    21    20    2
    91     3     2    1
    92     2     1    1
    93     8     7    1
    94     8     9    1
    95    20    19    1
    96    18     9   am
    97    18    19    1
    98     9    10    2
    99    19    22    1
   100    25    27   ar
   101    25    23   ar
   102    22    23    1
   103    27    28   ar
   104    23    24   ar
   105   119   120   ar
   106   119   117   ar
   107   120   118   ar
   108   117   115   ar
   109    28    29    1
   110    28    26   ar
   111    24    26   ar
   112   118   116   ar
   113   115   116   ar
   114   115   114    1
   115   114   111    1
   116   111   112    1
   117   111   110    1
   118   112   113    2
