@<TRIPOS>MOLECULE
tmp/1eccA01.pdb
 162 159 0 0 0
SMALL
GASTEIGER

@<TRIPOS>ATOM
      1  N         96.7540   33.0930   77.5850 N.3   258  TYR258     -0.1241
      2  CA        96.0240   32.1260   78.3450 C.3   258  TYR258      0.1605
      3  C         95.9420   30.7240   77.7550 C.2   258  TYR258      0.2264
      4  O         96.2100   29.7350   78.4430 O.2   258  TYR258     -0.2867
      5  CB        94.6260   32.6810   78.5540 C.3   258  TYR258      0.0534
      6  CG        93.6070   31.6450   78.8980 C.ar  258  TYR258     -0.0201
      7  CD1       93.4810   31.1760   80.2040 C.ar  258  TYR258     -0.0009
      8  CD2       92.7690   31.1220   77.9180 C.ar  258  TYR258     -0.0009
      9  CE1       92.5340   30.2050   80.5410 C.ar  258  TYR258      0.0417
     10  CE2       91.8140   30.1510   78.2340 C.ar  258  TYR258      0.0417
     11  CZ        91.7020   29.6980   79.5570 C.ar  258  TYR258      0.1957
     12  OH        90.7380   28.7810   79.9060 O.3   258  TYR258     -0.2866
     13  N         94.8320   34.0520   90.5810 N.3   301  ILE301     -0.1231
     14  CA        93.5960   33.3170   90.4720 C.3   301  ILE301      0.1678
     15  C         94.0270   32.1130   89.6460 C.2   301  ILE301      0.2434
     16  O         94.1410   32.1980   88.4140 O.2   301  ILE301     -0.2733
     17  CB        92.5190   34.1170   89.7710 C.3   301  ILE301      0.0265
     18  CG1       92.1950   35.3660   90.6120 C.3   301  ILE301      0.0019
     19  CG2       91.2950   33.2120   89.5160 C.3   301  ILE301      0.0020
     20  CD1       91.2180   36.3450   89.9430 C.3   301  ILE301      0.0001
     21  N         94.2470   30.9600   90.3050 N.am  302  PRO302     -0.2718
     22  CA        94.6870   29.7320   89.6270 C.3   302  PRO302      0.1535
     23  C         93.7720   29.3680   88.4740 C.2   302  PRO302      0.2598
     24  O         92.5590   29.6680   88.4970 O.2   302  PRO302     -0.2715
     25  CB        94.6410   28.6830   90.7400 C.3   302  PRO302      0.0310
     26  CG        94.6720   29.4960   92.0200 C.3   302  PRO302      0.0237
     27  CD        93.8140   30.6650   91.6840 C.3   302  PRO302      0.0939
     28  N         94.3290   28.7310   87.4520 N.am  303  GLU303     -0.1964
     29  CA        95.7210   28.3770   87.4310 C.3   303  GLU303      0.1733
     30  C         96.6140   29.1280   86.4400 C.2   303  GLU303      0.2617
     31  O         97.7970   29.2470   86.6690 O.2   303  GLU303     -0.2715
     32  CB        95.8040   26.8920   87.1620 C.3   303  GLU303      0.0429
     33  CG        97.1540   26.2770   87.4370 C.3   303  GLU303      0.1163
     34  CD        97.0600   24.7680   87.5530 C.2   303  GLU303      0.3649
     35  OE1       96.3780   24.1290   86.6990 O.co2 303  GLU303     -0.2457
     36  OE2       97.6490   24.2270   88.5230 O.co2 303  GLU303     -0.2457
     37  N         96.0600   29.6270   85.3380 N.am  304  THR304     -0.1951
     38  CA        96.8830   30.3180   84.3390 C.3   304  THR304      0.1897
     39  C         97.7220   31.4890   84.8640 C.2   304  THR304      0.2313
     40  O         98.8730   31.6220   84.4960 O.2   304  THR304     -0.2863
     41  CB        96.0580   30.8080   83.1080 C.3   304  THR304      0.1794
     42  OG1       95.4300   29.6970   82.4510 O.3   304  THR304     -0.2208
     43  CG2       96.9500   31.5610   82.1220 C.3   304  THR304      0.0378
     44  N         92.3450   25.6680   94.0390 N.3   326  LYS326     -0.1245
     45  CA        91.6130   25.3160   92.8430 C.3   326  LYS326      0.1561
     46  C         91.2730   23.8430   92.9410 C.2   326  LYS326      0.2260
     47  O         92.0710   23.0160   93.4230 O.2   326  LYS326     -0.2867
     48  CB        92.4650   25.5980   91.5990 C.3   326  LYS326      0.0271
     49  CG        91.7680   25.3590   90.2560 C.3   326  LYS326      0.0035
     50  CD        92.7500   25.5310   89.0750 C.3   326  LYS326      0.0206
     51  CE        92.6650   24.3870   88.0720 C.3   326  LYS326      0.1093
     52  NZ        93.0900   23.0820   88.6440 N.3   326  LYS326     -0.1314
     53  N         89.0590   24.0700   82.5950 N.3   332  ARG332     -0.1231
     54  CA        89.0890   25.4720   82.2440 C.3   332  ARG332      0.1694
     55  C         87.6450   25.8890   82.0450 C.2   332  ARG332      0.2593
     56  O         86.9590   25.4070   81.1270 O.2   332  ARG332     -0.2718
     57  CB        89.9210   25.6700   80.9890 C.3   332  ARG332      0.0321
     58  CG        91.1950   24.8450   81.0500 C.3   332  ARG332      0.0489
     59  CD        92.1980   25.2060   79.9930 C.3   332  ARG332      0.2205
     60  NE        93.0470   26.3060   80.4240 N.pl3 332  ARG332     -0.0865
     61  CZ        93.9260   26.9220   79.6380 C.cat 332  ARG332      0.5346
     62  NH1       94.0830   26.5490   78.3680 N.pl3 332  ARG332      0.1354
     63  NH2       94.6570   27.9130   80.1300 N.pl3 332  ARG332      0.1354
     64  N         87.1590   26.7080   82.9800 N.am  333  THR333     -0.1939
     65  CA        85.7770   27.1730   82.9380 C.3   333  THR333      0.2028
     66  C         85.5590   28.0600   81.7100 C.2   333  THR333      0.2642
     67  O         84.4960   28.0120   81.0730 O.2   333  THR333     -0.2714
     68  CB        85.3170   27.8870   84.2810 C.3   333  THR333      0.1808
     69  OG1       85.9250   29.1770   84.4150 O.3   333  THR333     -0.2208
     70  CG2       85.6820   27.0450   85.4910 C.3   333  THR333      0.0379
     71  N         86.6220   28.7530   81.3030 N.am  334  PHE334     -0.1973
     72  CA        86.5450   29.6540   80.1560 C.3   334  PHE334      0.1639
     73  C         86.0600   29.0040   78.8590 C.2   334  PHE334      0.2290
     74  O         85.2120   29.5580   78.1460 O.2   334  PHE334     -0.2864
     75  CB        87.8890   30.3470   79.8700 C.3   334  PHE334      0.0560
     76  CG        87.8660   31.1530   78.6010 C.ar  334  PHE334     -0.0200
     77  CD1       87.1630   32.3540   78.5410 C.ar  334  PHE334     -0.0042
     78  CD2       88.4400   30.6570   77.4360 C.ar  334  PHE334     -0.0042
     79  CE1       87.0250   33.0410   77.3450 C.ar  334  PHE334     -0.0003
     80  CE2       88.3090   31.3390   76.2240 C.ar  334  PHE334     -0.0003
     81  CZ        87.5950   32.5370   76.1800 C.ar  334  PHE334     -0.0000
     82  N         85.2950   25.5760   91.0620 N.3   349  LYS349     -0.1245
     83  CA        86.7050   25.6840   90.7450 C.3   349  LYS349      0.1561
     84  C         87.5840   26.2850   91.8650 C.2   349  LYS349      0.2260
     85  O         88.6270   25.7390   92.2300 O.2   349  LYS349     -0.2867
     86  CB        86.8550   26.5180   89.4560 C.3   349  LYS349      0.0271
     87  CG        88.2550   26.5480   88.8960 C.3   349  LYS349      0.0035
     88  CD        88.3480   27.2680   87.5610 C.3   349  LYS349      0.0206
     89  CE        89.7570   27.1410   86.9450 C.3   349  LYS349      0.1093
     90  NZ        90.1710   25.7340   86.7130 N.3   349  LYS349     -0.1314
     91  N         95.1300   37.9030   87.4060 N.3   366  ASP366     -0.1225
     92  CA        94.5670   36.9310   86.4910 C.3   366  ASP366      0.1805
     93  C         95.0780   37.2120   85.0930 C.2   366  ASP366      0.2598
     94  O         95.2810   38.3780   84.7200 O.2   366  ASP366     -0.2718
     95  CB        93.0480   36.9870   86.4950 C.3   366  ASP366      0.1424
     96  CG        92.4310   35.6410   86.2200 C.2   366  ASP366      0.3668
     97  OD1       93.1350   34.7470   85.6970 O.co2 366  ASP366     -0.2456
     98  OD2       91.2530   35.4410   86.5630 O.co2 366  ASP366     -0.2456
     99  N         95.2970   36.1370   84.3340 N.am  367  ASP367     -0.1960
    100  CA        95.8020   36.2100   82.9640 C.3   367  ASP367      0.1840
    101  C         94.9590   37.1400   82.1400 C.2   367  ASP367      0.2623
    102  O         95.4780   37.8340   81.2620 O.2   367  ASP367     -0.2715
    103  CB        95.8050   34.8250   82.3100 C.3   367  ASP367      0.1450
    104  CG        94.4590   34.0890   82.4560 C.2   367  ASP367      0.3671
    105  OD1       94.2250   33.4500   83.5220 O.co2 367  ASP367     -0.2456
    106  OD2       93.6420   34.0990   81.5060 O.co2 367  ASP367     -0.2456
    107  N         93.6750   37.2000   82.4780 N.am  368  SER368     -0.1936
    108  CA        92.7500   38.0310   81.7460 C.3   368  SER368      0.2055
    109  C         91.3590   37.9830   82.3170 C.2   368  SER368      0.2643
    110  O         91.0290   37.1270   83.1230 O.2   368  SER368     -0.2714
    111  CB        92.6430   37.5240   80.3160 C.3   368  SER368      0.2130
    112  OG        92.0410   36.2260   80.2960 O.3   368  SER368     -0.2179
    113  N         90.5260   38.8750   81.8060 N.am  369  ILE369     -0.1963
    114  CA        89.1270   38.9690   82.1790 C.3   369  ILE369      0.1727
    115  C         88.5050   38.9870   80.8080 C.2   369  ILE369      0.2616
    116  O         88.9440   39.7100   79.9220 O.2   369  ILE369     -0.2715
    117  CB        88.7540   40.3140   82.8480 C.3   369  ILE369      0.0290
    118  CG1       89.5450   40.5040   84.1440 C.3   369  ILE369      0.0022
    119  CG2       87.2280   40.3720   83.0860 C.3   369  ILE369      0.0023
    120  CD1       89.5750   41.9150   84.6030 C.3   369  ILE369      0.0001
    121  N         87.4980   38.1680   80.6170 N.am  370  VAL370     -0.1963
    122  CA        86.8520   38.1100   79.3370 C.3   370  VAL370      0.1727
    123  C         85.3650   38.4100   79.5130 C.2   370  VAL370      0.2616
    124  O         84.8940   39.5010   79.1910 O.2   370  VAL370     -0.2715
    125  CB        87.1340   36.7430   78.7070 C.3   370  VAL370      0.0290
    126  CG1       86.5590   36.6620   77.3190 C.3   370  VAL370      0.0023
    127  CG2       88.6530   36.4970   78.6900 C.3   370  VAL370      0.0023
    128  N         84.6360   37.4840   80.1080 N.am  371  ARG371     -0.1963
    129  CA        83.2250   37.7160   80.3090 C.3   371  ARG371      0.1729
    130  C         83.0350   38.2860   81.6810 C.2   371  ARG371      0.2617
    131  O         82.0300   38.9070   81.9680 O.2   371  ARG371     -0.2715
    132  CB        82.4490   36.4150   80.1190 C.3   371  ARG371      0.0348
    133  CG        82.9800   35.6620   78.9030 C.3   371  ARG371      0.0492
    134  CD        81.9690   34.7440   78.2530 C.3   371  ARG371      0.2205
    135  NE        82.5680   34.0510   77.1150 N.pl3 371  ARG371     -0.0865
    136  CZ        83.3740   32.9930   77.2100 C.cat 371  ARG371      0.5346
    137  NH1       83.6900   32.4840   78.4020 N.pl3 371  ARG371      0.1354
    138  NH2       83.8670   32.4380   76.1050 N.pl3 371  ARG371      0.1354
    139  N         84.0680   38.1540   82.4970 N.am  372  GLY372     -0.1940
    140  CA        84.0030   38.6420   83.8610 C.3   372  GLY372      0.2014
    141  C         83.4530   37.5870   84.8110 C.2   372  GLY372      0.2640
    142  O         83.2670   37.8340   86.0050 O.2   372  GLY372     -0.2714
    143  N         83.2760   36.3780   84.2970 N.am  373  THR373     -0.1936
    144  CA        82.7460   35.2800   85.0930 C.3   373  THR373      0.2028
    145  C         83.5750   35.0180   86.3900 C.2   373  THR373      0.2643
    146  O         83.0650   35.0880   87.5160 O.2   373  THR373     -0.2714
    147  CB        82.6850   33.9970   84.2060 C.3   373  THR373      0.1808
    148  OG1       82.3880   34.3600   82.8400 O.3   373  THR373     -0.2208
    149  CG2       81.6280   33.0250   84.7370 C.3   373  THR373      0.0379
    150  N         84.8650   34.7500   86.2030 N.am  374  THR374     -0.1936
    151  CA        85.7950   34.4650   87.2830 C.3   374  THR374      0.2028
    152  C         86.0120   35.6340   88.2420 C.2   374  THR374      0.2642
    153  O         85.8800   35.4790   89.4350 O.2   374  THR374     -0.2714
    154  CB        87.1790   34.0140   86.6940 C.3   374  THR374      0.1808
    155  OG1       87.0630   32.7090   86.1100 O.3   374  THR374     -0.2208
    156  CG2       88.2570   33.9720   87.7550 C.3   374  THR374      0.0379
    157  N         86.3870   36.7880   87.7180 N.am  375  SER375     -0.1949
    158  CA        86.6550   37.9560   88.5480 C.3   375  SER375      0.1924
    159  C         85.4840   38.4130   89.4360 C.2   375  SER375      0.2314
    160  O         85.6820   38.7580   90.6060 O.2   375  SER375     -0.2863
    161  CB        87.1140   39.1100   87.6680 C.3   375  SER375      0.2116
    162  OG        86.1380   39.3800   86.6810 O.3   375  SER375     -0.2180
@<TRIPOS>BOND
     1   138   136    1
     2    81    80   ar
     3    81    79   ar
     4    80    78   ar
     5   135   136    2
     6   135   134    1
     7   136   137    1
     8   126   125    1
     9    79    77   ar
    10    78    76   ar
    11     1     2    1
    12     3     2    1
    13     3     4    2
    14     8    10   ar
    15     8     6   ar
    16    74    73    2
    17    10    11   ar
    18   134   133    1
    19     2     5    1
    20    62    61    1
    21    77    76   ar
    22     5     6    1
    23    76    75    1
    24   127   125    1
    25   125   122    1
    26    73    72    1
    27     6     7   ar
    28   133   132    1
    29   124   123    2
    30   122   123    1
    31   122   121    1
    32   123   128   am
    33    11    12    1
    34    11     9   ar
    35    61    63    1
    36    61    60    2
    37    75    72    1
    38   116   115    2
    39    59    60    1
    40    59    58    1
    41   128   129    1
    42   132   129    1
    43    72    71    1
    44     7     9   ar
    45   112   111    1
    46   129   130    1
    47   111   108    1
    48   121   115   am
    49   115   114    1
    50    57    58    1
    51    57    54    1
    52    67    66    2
    53    56    55    2
    54   102   101    2
    55    71    66   am
    56   106   104   ar
    57   130   131    2
    58   130   139   am
    59    66    65    1
    60   108   109    1
    61   108   107    1
    62   113   114    1
    63   113   109   am
    64    55    54    1
    65    55    64   am
    66    43    41    1
    67   101   107   am
    68   101   100    1
    69   114   117    1
    70    54    53    1
    71   103   104    1
    72   103   100    1
    73   109   110    2
    74    42    41    1
    75   104   105   ar
    76   139   140    1
    77   148   147    1
    78   117   119    1
    79   117   118    1
    80    65    64    1
    81    65    68    1
    82   100    99    1
    83    41    38    1
    84   140   141    1
    85   118   120    1
    86   147   149    1
    87   147   144    1
    88    68    69    1
    89    68    70    1
    90   143   141   am
    91   143   144    1
    92    99    93   am
    93    38    39    1
    94    38    37    1
    95    40    39    2
    96    94    93    2
    97   141   142    2
    98    93    92    1
    99   144   145    1
   100    37    30   am
   101    97    96   ar
   102   155   154    1
   103   150   145   am
   104   150   151    1
   105    96    95    1
   106    96    98   ar
   107   145   146    2
   108    30    31    2
   109    30    29    1
   110    92    95    1
   111    92    91    1
   112   162   161    1
   113   154   151    1
   114   154   156    1
   115    35    34   ar
   116    90    89    1
   117    89    88    1
   118    32    29    1
   119    32    33    1
   120   151   152    1
   121    29    28    1
   122    33    34    1
   123    28    23   am
   124    34    36   ar
   125    88    87    1
   126   161   158    1
   127   157   152   am
   128   157   158    1
   129    51    52    1
   130    51    50    1
   131   152   153    2
   132    16    15    2
   133    23    24    2
   134    23    22    1
   135   158   159    1
   136    87    86    1
   137    50    49    1
   138   159   160    2
   139    86    83    1
   140    19    17    1
   141    22    21    1
   142    22    25    1
   143    15    21   am
   144    15    14    1
   145    17    14    1
   146    17    18    1
   147    20    18    1
   148    49    48    1
   149    21    27    1
   150    14    13    1
   151    25    26    1
   152    83    82    1
   153    83    84    1
   154    48    45    1
   155    27    26    1
   156    84    85    2
   157    45    46    1
   158    45    44    1
   159    46    47    2
