@<TRIPOS>MOLECULE
tmp/1eceA00.pdb
 245 243 0 0 0
SMALL
GASTEIGER

@<TRIPOS>ATOM
      1  N        -24.5450   78.8640   86.7380 N.3    29  PHE29      -0.1241
      2  CA       -23.9090   79.8770   85.9230 C.3    29  PHE29       0.1605
      3  C        -24.1720   79.8480   84.4270 C.2    29  PHE29       0.2264
      4  O        -24.5230   78.8200   83.8400 O.2    29  PHE29      -0.2867
      5  CB       -22.4130   79.9010   86.1820 C.3    29  PHE29       0.0534
      6  CG       -21.6700   78.7140   85.6330 C.ar   29  PHE29      -0.0203
      7  CD1      -21.1430   78.7390   84.3440 C.ar   29  PHE29      -0.0042
      8  CD2      -21.4310   77.6010   86.4200 C.ar   29  PHE29      -0.0042
      9  CE1      -20.3810   77.6600   83.8510 C.ar   29  PHE29      -0.0003
     10  CE2      -20.6670   76.5150   85.9340 C.ar   29  PHE29      -0.0003
     11  CZ       -20.1450   76.5490   84.6530 C.ar   29  PHE29      -0.0000
     12  N        -22.8890   85.1780   82.8290 N.3    32  GLU32      -0.1231
     13  CA       -21.6370   85.9180   82.8880 C.3    32  GLU32       0.1699
     14  C        -20.6920   85.5640   81.7300 C.2    32  GLU32       0.2592
     15  O        -19.6970   86.2490   81.4960 O.2    32  GLU32      -0.2718
     16  CB       -20.9510   85.6490   84.2340 C.3    32  GLU32       0.0402
     17  CG       -20.1680   84.3140   84.3720 C.3    32  GLU32       0.1161
     18  CD       -21.0190   83.0570   84.6350 C.2    32  GLU32       0.3649
     19  OE1      -22.2570   83.0680   84.4620 O.co2  32  GLU32      -0.2457
     20  OE2      -20.4320   82.0210   85.0120 O.co2  32  GLU32      -0.2457
     21  N        -20.9950   84.4640   81.0410 N.am   33  THR33      -0.1953
     22  CA       -20.1920   83.9800   79.9180 C.3    33  THR33       0.1897
     23  C        -20.6680   84.6260   78.6250 C.2    33  THR33       0.2313
     24  O        -21.7120   85.2790   78.6000 O.2    33  THR33      -0.2863
     25  CB       -20.3360   82.4620   79.7500 C.3    33  THR33       0.1794
     26  OG1      -21.6610   82.1610   79.2820 O.3    33  THR33      -0.2208
     27  CG2      -20.0670   81.7520   81.0800 C.3    33  THR33       0.0378
     28  N        -26.3140   78.1150   81.2620 N.3    39  HIS39      -0.1241
     29  CA       -26.0570   76.9450   80.4500 C.3    39  HIS39       0.1621
     30  C        -27.0480   75.8050   80.6920 C.2    39  HIS39       0.2264
     31  O        -27.7570   75.7710   81.7070 O.2    39  HIS39      -0.2867
     32  CB       -24.6400   76.4390   80.6980 C.3    39  HIS39       0.0745
     33  CG       -23.5750   77.3310   80.1400 C.ar   39  HIS39       0.0817
     34  ND1      -22.2360   77.0220   80.2060 N.ar   39  HIS39      -0.2268
     35  CD2      -23.6500   78.5460   79.5460 C.ar   39  HIS39       0.1154
     36  CE1      -21.5290   78.0090   79.6870 C.ar   39  HIS39       0.1986
     37  NE2      -22.3630   78.9450   79.2760 N.ar   39  HIS39      -0.2212
     38  N        -20.5620   88.6140   88.5990 N.3   116  HIS116     -0.1226
     39  CA       -19.4210   87.7280   88.4850 C.3   116  HIS116      0.1752
     40  C        -18.2330   88.2230   87.6500 C.2   116  HIS116      0.2595
     41  O        -17.0870   87.9180   87.9840 O.2   116  HIS116     -0.2718
     42  CB       -19.9400   86.3880   87.9720 C.3   116  HIS116      0.0759
     43  CG       -19.1650   85.1880   88.4270 C.ar  116  HIS116      0.0818
     44  ND1      -19.3100   84.6350   89.6810 N.ar  116  HIS116     -0.2268
     45  CD2      -18.3240   84.3630   87.7530 C.ar  116  HIS116      0.1154
     46  CE1      -18.6040   83.5190   89.7560 C.ar  116  HIS116      0.1986
     47  NE2      -17.9970   83.3320   88.6000 N.ar  116  HIS116     -0.2212
     48  N        -18.4920   89.0200   86.6140 N.am  117  ARG117     -0.1980
     49  CA       -17.4440   89.5130   85.7160 C.3   117  ARG117      0.1597
     50  C        -17.7960   90.8700   85.1690 C.2   117  ARG117      0.2287
     51  O        -18.9540   91.1240   84.8570 O.2   117  ARG117     -0.2864
     52  CB       -17.3350   88.6150   84.4860 C.3   117  ARG117      0.0334
     53  CG       -16.9600   87.1980   84.7490 C.3   117  ARG117      0.0492
     54  CD       -16.9220   86.4260   83.4530 C.3   117  ARG117      0.2205
     55  NE       -16.4640   85.0760   83.7060 N.pl3 117  ARG117     -0.0865
     56  CZ       -16.3000   84.1530   82.7620 C.cat 117  ARG117      0.5346
     57  NH1      -16.5540   84.4400   81.4920 N.pl3 117  ARG117      0.1354
     58  NH2      -15.9360   82.9170   83.0920 N.pl3 117  ARG117      0.1354
     59  N        -12.9770   87.2870   84.7720 N.3   123  GLN123     -0.1245
     60  CA       -13.0760   87.9330   86.0790 C.3   123  GLN123      0.1566
     61  C        -12.0470   89.0520   86.2370 C.2   123  GLN123      0.2260
     62  O        -11.1000   89.1630   85.4530 O.2   123  GLN123     -0.2867
     63  CB       -12.8790   86.8960   87.1960 C.3   123  GLN123      0.0367
     64  CG       -13.9430   85.8160   87.2390 C.3   123  GLN123      0.0905
     65  CD       -13.6810   84.7650   88.2880 C.2   123  GLN123      0.2608
     66  OE1      -14.0830   83.6160   88.1320 O.2   123  GLN123     -0.2717
     67  NE2      -13.0200   85.1500   89.3720 N.am  123  GLN123     -0.0878
     68  N        -17.6430   89.5530   92.3130 N.3   161  ASN161     -0.1225
     69  CA       -17.0820   88.2270   92.5060 C.3   161  ASN161      0.1785
     70  C        -15.5660   88.1890   92.6320 C.2   161  ASN161      0.2597
     71  O        -14.8230   88.7320   91.8160 O.2   161  ASN161     -0.2718
     72  CB       -17.5110   87.2620   91.3860 C.3   161  ASN161      0.1169
     73  CG       -16.9600   85.8500   91.5860 C.2   161  ASN161      0.2627
     74  OD1      -17.2720   85.1880   92.5700 O.2   161  ASN161     -0.2716
     75  ND2      -16.1640   85.3840   90.6440 N.am  161  ASN161     -0.0877
     76  N        -15.1230   87.5520   93.6970 N.am  162  GLU162     -0.1979
     77  CA       -13.7180   87.3300   93.9560 C.3   162  GLU162      0.1602
     78  C        -12.6870   88.4470   93.8440 C.2   162  GLU162      0.2287
     79  O        -11.7000   88.3290   93.0990 O.2   162  GLU162     -0.2864
     80  CB       -13.2620   86.0790   93.1920 C.3   162  GLU162      0.0415
     81  CG       -13.9550   84.8360   93.7150 C.3   162  GLU162      0.1163
     82  CD       -13.4960   83.5560   93.0650 C.2   162  GLU162      0.3649
     83  OE1      -12.7720   83.6070   92.0600 O.co2 162  GLU162     -0.2457
     84  OE2      -13.8740   82.4760   93.5540 O.co2 162  GLU162     -0.2457
     85  N         -8.0200   88.8090   98.9780 N.3   204  GLN204     -0.1245
     86  CA        -7.1240   87.6540   98.9270 C.3   204  GLN204      0.1566
     87  C         -6.0360   87.7070   99.9920 C.2   204  GLN204      0.2260
     88  O         -5.7670   86.7090  100.6600 O.2   204  GLN204     -0.2867
     89  CB        -6.4790   87.5620   97.5410 C.3   204  GLN204      0.0367
     90  CG        -5.3590   86.5520   97.4300 C.3   204  GLN204      0.0905
     91  CD        -4.6670   86.6280   96.0900 C.2   204  GLN204      0.2608
     92  OE1       -4.9410   87.5090   95.2760 O.2   204  GLN204     -0.2717
     93  NE2       -3.7740   85.7050   95.8470 N.am  204  GLN204     -0.0878
     94  N         -2.1490   85.1840  102.6160 N.3   210  SER210     -0.1202
     95  CA        -2.9670   84.8960  101.4390 C.3   210  SER210      0.2020
     96  C         -3.9080   83.7040  101.6350 C.2   210  SER210      0.2619
     97  O         -3.5650   82.7280  102.3280 O.2   210  SER210     -0.2717
     98  CB        -2.0840   84.6580  100.2080 C.3   210  SER210      0.2103
     99  OG        -1.5260   85.8740   99.7280 O.3   210  SER210     -0.2182
    100  N         -5.0660   83.7740  100.9710 N.am  211  TYR211     -0.1961
    101  CA        -6.1130   82.7480  101.0400 C.3   211  TYR211      0.1771
    102  C         -6.8460   82.7860   99.6850 C.2   211  TYR211      0.2620
    103  O         -6.4260   83.5240   98.7880 O.2   211  TYR211     -0.2715
    104  CB        -7.0400   83.1050  102.2160 C.3   211  TYR211      0.0574
    105  CG        -8.1560   82.1470  102.5220 C.ar  211  TYR211     -0.0198
    106  CD1       -7.9040   80.8330  102.8850 C.ar  211  TYR211     -0.0009
    107  CD2       -9.4710   82.5740  102.4750 C.ar  211  TYR211     -0.0009
    108  CE1       -8.9410   79.9710  103.1930 C.ar  211  TYR211      0.0417
    109  CE2      -10.5150   81.7240  102.7820 C.ar  211  TYR211      0.0417
    110  CZ       -10.2450   80.4320  103.1380 C.ar  211  TYR211      0.1957
    111  OH       -11.2920   79.6190  103.4510 O.3   211  TYR211     -0.2866
    112  N         -7.8950   81.9850   99.5060 N.am  212  TRP212     -0.1960
    113  CA        -8.6360   81.9770   98.2370 C.3   212  TRP212      0.1771
    114  C         -9.2150   83.3510   97.8950 C.2   212  TRP212      0.2619
    115  O         -9.6360   84.0900   98.7910 O.2   212  TRP212     -0.2715
    116  CB        -9.7900   80.9710   98.2860 C.3   212  TRP212      0.0590
    117  CG        -9.3750   79.5630   98.4670 C.ar  212  TRP212      0.0006
    118  CD1       -9.4370   78.8440   99.6130 C.ar  212  TRP212      0.0946
    119  CD2       -8.8590   78.6800   97.4590 C.ar  212  TRP212      0.0152
    120  NE1       -8.9910   77.5670   99.3910 N.ar  212  TRP212     -0.2442
    121  CE2       -8.6280   77.4350   98.0780 C.ar  212  TRP212      0.0810
    122  CE3       -8.5700   78.8230   96.0900 C.ar  212  TRP212      0.0012
    123  CZ2       -8.1200   76.3290   97.3840 C.ar  212  TRP212      0.0191
    124  CZ3       -8.0620   77.7160   95.3890 C.ar  212  TRP212      0.0001
    125  CH2       -7.8420   76.4850   96.0460 C.ar  212  TRP212      0.0015
    126  N         -9.2690   83.6740   96.6030 N.am  213  TRP213     -0.1974
    127  CA        -9.8120   84.9540   96.1500 C.3   213  TRP213      0.1640
    128  C        -11.2310   85.0980   96.6880 C.2   213  TRP213      0.2290
    129  O        -12.0430   84.1760   96.5890 O.2   213  TRP213     -0.2864
    130  CB        -9.8830   85.0160   94.6210 C.3   213  TRP213      0.0576
    131  CG        -8.5820   84.8730   93.8490 C.ar  213  TRP213      0.0006
    132  CD1       -7.3170   84.7940   94.3550 C.ar  213  TRP213      0.0946
    133  CD2       -8.4460   84.7600   92.4150 C.ar  213  TRP213      0.0152
    134  NE1       -6.4100   84.6310   93.3340 N.ar  213  TRP213     -0.2442
    135  CE2       -7.0760   84.6050   92.1370 C.ar  213  TRP213      0.0810
    136  CE3       -9.3560   84.7700   91.3450 C.ar  213  TRP213      0.0012
    137  CZ2       -6.5910   84.4570   90.8340 C.ar  213  TRP213      0.0191
    138  CZ3       -8.8750   84.6240   90.0540 C.ar  213  TRP213      0.0001
    139  CH2       -7.5050   84.4690   89.8100 C.ar  213  TRP213      0.0015
    140  N        -15.2260   82.3000   99.9310 N.3   238  HIS238     -0.1241
    141  CA       -15.1760   81.1700   99.0000 C.3   238  HIS238      0.1621
    142  C        -14.0490   80.3030   99.5090 C.2   238  HIS238      0.2264
    143  O        -13.0650   80.8220  100.0130 O.2   238  HIS238     -0.2867
    144  CB       -14.8010   81.5950   97.5770 C.3   238  HIS238      0.0745
    145  CG       -15.8570   82.3780   96.8680 C.ar  238  HIS238      0.0817
    146  ND1      -15.7530   82.7170   95.5380 N.ar  238  HIS238     -0.2268
    147  CD2      -16.9980   82.9510   97.3160 C.ar  238  HIS238      0.1154
    148  CE1      -16.7780   83.4760   95.1990 C.ar  238  HIS238      0.1986
    149  NE2      -17.5480   83.6330   96.2620 N.ar  238  HIS238     -0.2212
    150  N        -11.9600   76.4690   98.3870 N.3   240  TYR240     -0.1241
    151  CA       -11.8340   75.3110   97.4810 C.3   240  TYR240      0.1605
    152  C        -10.7320   74.3350   97.9120 C.2   240  TYR240      0.2264
    153  O         -9.9430   74.6130   98.8220 O.2   240  TYR240     -0.2867
    154  CB       -11.5610   75.7570   96.0400 C.3   240  TYR240      0.0534
    155  CG       -12.7580   76.3380   95.3460 C.ar  240  TYR240     -0.0201
    156  CD1      -13.7440   75.5130   94.8180 C.ar  240  TYR240     -0.0009
    157  CD2      -12.9130   77.7200   95.2310 C.ar  240  TYR240     -0.0009
    158  CE1      -14.8640   76.0510   94.1850 C.ar  240  TYR240      0.0417
    159  CE2      -14.0110   78.2710   94.6090 C.ar  240  TYR240      0.0417
    160  CZ       -14.9850   77.4330   94.0860 C.ar  240  TYR240      0.1957
    161  OH       -16.0720   77.9880   93.4620 O.3   240  TYR240     -0.2866
    162  N         -8.9790   72.4880   92.5340 N.3   244  VAL244     -0.1231
    163  CA        -8.8660   73.8510   92.0110 C.3   244  VAL244      0.1692
    164  C         -7.4320   74.3590   92.1380 C.2   244  VAL244      0.2592
    165  O         -6.8450   74.8740   91.1760 O.2   244  VAL244     -0.2718
    166  CB        -9.8040   74.8270   92.7600 C.3   244  VAL244      0.0266
    167  CG1       -9.5920   76.2670   92.2740 C.3   244  VAL244      0.0020
    168  CG2      -11.2450   74.3960   92.5820 C.3   244  VAL244      0.0020
    169  N         -6.8800   74.2550   93.3380 N.am  245  TYR245     -0.1976
    170  CA        -5.5280   74.7070   93.5650 C.3   245  TYR245      0.1639
    171  C         -4.9560   74.0230   94.7850 C.2   245  TYR245      0.2290
    172  O         -5.4890   74.1420   95.8860 O.2   245  TYR245     -0.2864
    173  CB        -5.4790   76.2220   93.7460 C.3   245  TYR245      0.0560
    174  CG        -4.0800   76.7470   93.6240 C.ar  245  TYR245     -0.0198
    175  CD1       -3.4820   76.8730   92.3800 C.ar  245  TYR245     -0.0009
    176  CD2       -3.3180   77.0220   94.7480 C.ar  245  TYR245     -0.0009
    177  CE1       -2.1500   77.2500   92.2510 C.ar  245  TYR245      0.0417
    178  CE2       -1.9830   77.3970   94.6370 C.ar  245  TYR245      0.0417
    179  CZ        -1.3990   77.5070   93.3830 C.ar  245  TYR245      0.1957
    180  OH        -0.0580   77.8290   93.2590 O.3   245  TYR245     -0.2866
    181  N         -3.3620   74.2160   97.4360 N.3   247  GLN247     -0.1245
    182  CA        -2.8740   75.1180   98.4550 C.3   247  GLN247      0.1566
    183  C         -1.9830   74.3020   99.3920 C.2   247  GLN247      0.2260
    184  O         -2.0990   73.0750   99.4640 O.2   247  GLN247     -0.2867
    185  CB        -4.0570   75.7020   99.2150 C.3   247  GLN247      0.0367
    186  CG        -5.0280   76.4520   98.3320 C.3   247  GLN247      0.0905
    187  CD        -4.5550   77.8390   97.9640 C.2   247  GLN247      0.2608
    188  OE1       -3.4600   78.2590   98.3150 O.2   247  GLN247     -0.2717
    189  NE2       -5.3890   78.5590   97.2490 N.am  247  GLN247     -0.0878
    190  N        -19.1690   80.0060   97.3280 N.3   282  GLU282     -0.1245
    191  CA       -18.7130   79.0580   96.3300 C.3   282  GLU282      0.1567
    192  C        -17.8240   78.0840   97.0490 C.2   282  GLU282      0.2260
    193  O        -17.0740   78.4480   97.9680 O.2   282  GLU282     -0.2867
    194  CB       -17.8560   79.7220   95.2500 C.3   282  GLU282      0.0388
    195  CG       -18.5770   80.3520   94.0620 C.3   282  GLU282      0.1160
    196  CD       -17.6030   80.9690   93.0400 C.2   282  GLU282      0.3649
    197  OE1      -16.5060   80.4100   92.8180 O.co2 282  GLU282     -0.2457
    198  OE2      -17.9170   82.0270   92.4640 O.co2 282  GLU282     -0.2457
    199  N        -20.9350   75.0090   94.3310 N.3   319  TRP319     -0.1241
    200  CA       -20.5160   75.2030   92.9430 C.3   319  TRP319      0.1605
    201  C        -20.1200   73.8530   92.2970 C.2   319  TRP319      0.2264
    202  O        -19.0780   73.2690   92.6420 O.2   319  TRP319     -0.2867
    203  CB       -19.3310   76.1710   92.8690 C.3   319  TRP319      0.0550
    204  CG       -18.9240   76.5180   91.4580 C.ar  319  TRP319      0.0003
    205  CD1      -18.1940   75.7490   90.5990 C.ar  319  TRP319      0.0946
    206  CD2      -19.2480   77.7180   90.7520 C.ar  319  TRP319      0.0152
    207  NE1      -18.0440   76.4060   89.3940 N.ar  319  TRP319     -0.2442
    208  CE2      -18.6850   77.6140   89.4650 C.ar  319  TRP319      0.0810
    209  CE3      -19.9630   78.8680   91.0830 C.ar  319  TRP319      0.0012
    210  CZ2      -18.8180   78.6200   88.5050 C.ar  319  TRP319      0.0191
    211  CZ3      -20.0970   79.8680   90.1290 C.ar  319  TRP319      0.0001
    212  CH2      -19.5240   79.7370   88.8520 C.ar  319  TRP319      0.0015
    213  N        -20.4740   71.4340   83.3980 N.3   324  ASP324     -0.1225
    214  CA       -19.3570   71.9960   82.6470 C.3   324  ASP324      0.1805
    215  C        -18.4760   72.9910   83.3910 C.2   324  ASP324      0.2598
    216  O        -18.2630   74.1150   82.9340 O.2   324  ASP324     -0.2718
    217  CB       -19.8430   72.5910   81.3160 C.3   324  ASP324      0.1424
    218  CG       -20.8040   73.7560   81.4940 C.2   324  ASP324      0.3668
    219  OD1      -21.5390   73.8350   82.5100 O.co2 324  ASP324     -0.2456
    220  OD2      -20.8270   74.6000   80.5740 O.co2 324  ASP324     -0.2456
    221  N        -17.9960   72.6000   84.5590 N.am  325  SER325     -0.1938
    222  CA       -17.1340   73.4820   85.3100 C.3   325  SER325      0.2055
    223  C        -15.8060   72.7770   85.3980 C.2   325  SER325      0.2644
    224  O        -15.6840   71.7110   85.9810 O.2   325  SER325     -0.2714
    225  CB       -17.6870   73.7610   86.6860 C.3   325  SER325      0.2130
    226  OG       -16.7590   74.5370   87.4150 O.3   325  SER325     -0.2179
    227  N        -14.8170   73.3800   84.7630 N.am  326  GLY326     -0.1939
    228  CA       -13.4860   72.8290   84.7100 C.3   326  GLY326      0.2014
    229  C        -13.0140   71.9760   85.8620 C.2   326  GLY326      0.2639
    230  O        -13.0270   70.7410   85.7700 O.2   326  GLY326     -0.2714
    231  N        -12.6670   72.6120   86.9740 N.am  327  ASP327     -0.1957
    232  CA       -12.1350   71.8490   88.0890 C.3   327  ASP327      0.1840
    233  C        -12.9600   71.6300   89.3490 C.2   327  ASP327      0.2622
    234  O        -12.4130   71.5430   90.4430 O.2   327  ASP327     -0.2715
    235  CB       -10.7290   72.3480   88.4300 C.3   327  ASP327      0.1450
    236  CG       -10.5600   73.8310   88.1880 C.2   327  ASP327      0.3671
    237  OD1      -11.5220   74.5980   88.4740 O.co2 327  ASP327     -0.2456
    238  OD2       -9.4630   74.2090   87.6970 O.co2 327  ASP327     -0.2456
    239  N        -14.2700   71.4830   89.1940 N.am  328  THR328     -0.1951
    240  CA       -15.1460   71.2330   90.3330 C.3   328  THR328      0.1897
    241  C        -16.2250   70.2400   89.9310 C.2   328  THR328      0.2313
    242  O        -16.7280   69.4970   90.7680 O.2   328  THR328     -0.2863
    243  CB       -15.8420   72.5210   90.8190 C.3   328  THR328      0.1794
    244  OG1      -16.5460   73.1240   89.7320 O.3   328  THR328     -0.2208
    245  CG2      -14.8330   73.5020   91.3420 C.3   328  THR328      0.0378
@<TRIPOS>BOND
     1    24    23    2
     2    23    22    1
     3    37    35   ar
     4    37    36   ar
     5    26    25    1
     6    35    33   ar
     7    36    34   ar
     8    25    22    1
     9    25    27    1
    10    22    21    1
    11    33    34   ar
    12    33    32    1
    13    29    30    1
    14    29    32    1
    15    29    28    1
    16   220   218   ar
    17    30    31    2
    18    21    14   am
    19   217   218    1
    20   217   214    1
    21    57    56    1
    22   218   219   ar
    23    15    14    2
    24    14    13    1
    25   214   215    1
    26   214   213    1
    27    56    58    1
    28    56    55    2
    29    12    13    1
    30    13    16    1
    31   216   215    2
    32   215   221   am
    33    54    55    1
    34    54    53    1
    35     4     3    2
    36     9     7   ar
    37     9    11   ar
    38    16    17    1
    39     7     6   ar
    40    17    18    1
    41     3     2    1
    42    19    18   ar
    43    52    53    1
    44    52    49    1
    45   221   222    1
    46    18    20   ar
    47    11    10   ar
    48   228   227    1
    49   228   229    1
    50   227   223   am
    51    59    60    1
    52    51    50    2
    53    50    49    1
    54   222   223    1
    55   222   225    1
    56   223   224    2
    57    62    61    2
    58     6     5    1
    59     6     8   ar
    60    49    48    1
    61   230   229    2
    62   229   231   am
    63     2     5    1
    64     2     1    1
    65    10     8   ar
    66    60    61    1
    67    60    63    1
    68    48    40   am
    69   225   226    1
    70   231   232    1
    71    63    64    1
    72    64    65    1
    73    40    41    2
    74    40    39    1
    75   238   236   ar
    76    45    43   ar
    77    45    47   ar
    78    42    43    1
    79    42    39    1
    80   232   235    1
    81   232   233    1
    82    66    65    2
    83   236   235    1
    84   236   237   ar
    85    65    67   am
    86    43    44   ar
    87    39    38    1
    88   210   212   ar
    89   210   208   ar
    90    47    46   ar
    91   212   211   ar
    92   239   233   am
    93   239   240    1
    94   233   234    2
    95   207   208   ar
    96   207   205   ar
    97   208   206   ar
    98    44    46   ar
    99   244   243    1
   100   139   138   ar
   101   139   137   ar
   102   241   240    1
   103   241   242    2
   104   138   136   ar
   105   211   209   ar
   106   240   243    1
   107   205   204   ar
   108    75    73   am
   109   206   209   ar
   110   206   204   ar
   111   243   245    1
   112   137   135   ar
   113   165   164    2
   114   136   133   ar
   115    72    73    1
   116    72    69    1
   117   204   203    1
   118    73    74    2
   119    71    70    2
   120   163   164    1
   121   163   162    1
   122   163   166    1
   123    83    82   ar
   124   135   133   ar
   125   135   134   ar
   126   164   169   am
   127   177   175   ar
   128   177   179   ar
   129   167   166    1
   130   201   202    2
   131   201   200    1
   132    68    69    1
   133   175   174   ar
   134   133   131   ar
   135   198   196   ar
   136    69    70    1
   137   168   166    1
   138    70    76   am
   139   197   196   ar
   140   203   200    1
   141   200   199    1
   142   196   195    1
   143    82    84   ar
   144    82    81    1
   145    79    78    2
   146    80    81    1
   147    80    77    1
   148   180   179    1
   149   134   132   ar
   150   169   170    1
   151   179   178   ar
   152   161   160    1
   153   170   173    1
   154   170   171    1
   155   174   173    1
   156   174   176   ar
   157    76    77    1
   158    78    77    1
   159   131   132   ar
   160   131   130    1
   161   195   194    1
   162   160   158   ar
   163   160   159   ar
   164   158   156   ar
   165   159   157   ar
   166   130   127    1
   167   178   176   ar
   168   171   172    2
   169   156   155   ar
   170   148   146   ar
   171   148   149   ar
   172   157   155   ar
   173   194   191    1
   174    92    91    2
   175   155   154    1
   176   124   125   ar
   177   124   122   ar
   178   146   145   ar
   179    93    91   am
   180   154   151    1
   181   125   123   ar
   182    91    90    1
   183   122   119   ar
   184   127   126    1
   185   127   128    1
   186   149   147   ar
   187   191   192    1
   188   191   190    1
   189   129   128    2
   190   126   114   am
   191   145   147   ar
   192   145   144    1
   193   192   193    2
   194   189   187   am
   195   123   121   ar
   196    90    89    1
   197   181   182    1
   198   119   121   ar
   199   119   117   ar
   200   151   152    1
   201   151   150    1
   202    89    86    1
   203   144   141    1
   204   114   113    1
   205   114   115    2
   206   152   153    2
   207   187   188    2
   208   187   186    1
   209   121   120   ar
   210   113   116    1
   211   113   112    1
   212   116   117    1
   213   186   185    1
   214   182   185    1
   215   182   183    1
   216   117   118   ar
   217   103   102    2
   218    86    85    1
   219    86    87    1
   220   141   142    1
   221   141   140    1
   222   120   118   ar
   223   183   184    2
   224   112   102   am
   225   142   143    2
   226   102   101    1
   227    99    98    1
   228    87    88    2
   229    98    95    1
   230   100   101    1
   231   100    96   am
   232   101   104    1
   233    95    96    1
   234    95    94    1
   235    96    97    2
   236   104   105    1
   237   107   105   ar
   238   107   109   ar
   239   105   106   ar
   240   109   110   ar
   241   106   108   ar
   242   110   108   ar
   243   110   111    1
