@<TRIPOS>MOLECULE
tmp/1ecfB02.pdb
 91 89 0 0 0
SMALL
GASTEIGER

@<TRIPOS>ATOM
      1  N         68.3070   21.1900   25.1370 N.3    84  GLU84      -0.1245
      2  CA        67.2380   21.0820   26.1120 C.3    84  GLU84       0.1567
      3  C         67.8230   20.9290   27.5320 C.2    84  GLU84       0.2260
      4  O         68.8190   20.2220   27.7500 O.2    84  GLU84      -0.2867
      5  CB        66.3200   19.9150   25.7690 C.3    84  GLU84       0.0388
      6  CG        65.1810   19.7350   26.7430 C.3    84  GLU84       0.1160
      7  CD        64.2630   18.6000   26.3640 C.2    84  GLU84       0.3649
      8  OE1       64.3850   18.1670   25.1980 O.co2  84  GLU84      -0.2457
      9  OE2       63.4260   18.1360   27.1960 O.co2  84  GLU84      -0.2457
     10  N         64.8740   16.0230   32.6850 N.3    88  PHE88      -0.1227
     11  CA        64.3470   15.2450   31.5630 C.3    88  PHE88       0.1736
     12  C         63.1810   14.3920   32.0690 C.2    88  PHE88       0.2595
     13  O         63.0030   14.1870   33.2910 O.2    88  PHE88      -0.2718
     14  CB        65.4410   14.3600   30.9420 C.3    88  PHE88       0.0547
     15  CG        66.3540   15.1020   30.0090 C.ar   88  PHE88      -0.0202
     16  CD1       65.9330   15.4370   28.7170 C.ar   88  PHE88      -0.0042
     17  CD2       67.6090   15.5180   30.4280 C.ar   88  PHE88      -0.0042
     18  CE1       66.7600   16.1870   27.8640 C.ar   88  PHE88      -0.0003
     19  CE2       68.4380   16.2640   29.5860 C.ar   88  PHE88      -0.0003
     20  CZ        68.0140   16.5990   28.3060 C.ar   88  PHE88      -0.0000
     21  N         62.4280   13.8360   31.1300 N.am   89  TYR89      -0.1962
     22  CA        61.2690   13.0380   31.4720 C.3    89  TYR89       0.1771
     23  C         60.9830   11.9350   30.4470 C.2    89  TYR89       0.2619
     24  O         61.3390   12.0730   29.2800 O.2    89  TYR89      -0.2715
     25  CB        60.0620   13.9880   31.5700 C.3    89  TYR89       0.0574
     26  CG        58.7060   13.3610   31.3090 C.ar   89  TYR89      -0.0198
     27  CD1       58.0060   12.7330   32.3310 C.ar   89  TYR89      -0.0009
     28  CD2       58.1190   13.4080   30.0390 C.ar   89  TYR89      -0.0009
     29  CE1       56.7610   12.1750   32.1150 C.ar   89  TYR89       0.0417
     30  CE2       56.8570   12.8420   29.8120 C.ar   89  TYR89       0.0417
     31  CZ        56.1900   12.2290   30.8680 C.ar   89  TYR89       0.1957
     32  OH        54.9310   11.7140   30.7080 O.3    89  TYR89      -0.2866
     33  N         60.3930   10.8330   30.9220 N.am   90  VAL90      -0.1963
     34  CA        59.9450    9.7150   30.0830 C.3    90  VAL90       0.1727
     35  C         58.5780    9.3470   30.6590 C.2    90  VAL90       0.2616
     36  O         58.3180    9.5840   31.8390 O.2    90  VAL90      -0.2715
     37  CB        60.9190    8.4960   30.0200 C.3    90  VAL90       0.0290
     38  CG1       62.1950    8.8870   29.2910 C.3    90  VAL90       0.0023
     39  CG2       61.2130    7.9240   31.4060 C.3    90  VAL90       0.0023
     40  N         57.7100    8.7800   29.8260 N.am   91  ASN91      -0.1958
     41  CA        56.3350    8.4470   30.1860 C.3    91  ASN91       0.1819
     42  C         56.1430    6.9790   30.4820 C.2    91  ASN91       0.2622
     43  O         55.0820    6.5730   30.9390 O.2    91  ASN91      -0.2715
     44  CB        55.3670    8.8740   29.0620 C.3    91  ASN91       0.1195
     45  CG        55.2210    7.8190   27.9650 C.2    91  ASN91       0.2630
     46  OD1       56.2020    7.3920   27.3720 O.2    91  ASN91      -0.2716
     47  ND2       53.9900    7.3560   27.7400 N.am   91  ASN91      -0.0877
     48  N         57.1700    6.1820   30.2360 N.am   92  SER92      -0.1950
     49  CA        57.0550    4.7620   30.4910 C.3    92  SER92       0.1924
     50  C         58.3870    4.2190   30.9580 C.2    92  SER92       0.2314
     51  O         59.4480    4.7000   30.5500 O.2    92  SER92      -0.2863
     52  CB        56.5850    4.0130   29.2320 C.3    92  SER92       0.2116
     53  OG        57.6500    3.8530   28.3040 O.3    92  SER92      -0.2180
     54  N         64.7310    2.6350   22.5250 N.3   120  ARG120     -0.1231
     55  CA        64.5960    3.9040   23.2450 C.3   120  ARG120      0.1694
     56  C         65.4090    4.9510   22.5820 C.2   120  ARG120      0.2592
     57  O         66.6250    4.8210   22.4770 O.2   120  ARG120     -0.2718
     58  CB        64.9970    3.7530   24.7170 C.3   120  ARG120      0.0321
     59  CG        63.8630    3.2220   25.5720 C.3   120  ARG120      0.0489
     60  CD        64.3030    2.8380   27.0110 C.3   120  ARG120      0.2205
     61  NE        63.1310    2.4720   27.8130 N.pl3 120  ARG120     -0.0865
     62  CZ        62.2960    3.3410   28.3730 C.cat 120  ARG120      0.5346
     63  NH1       62.5080    4.6520   28.2470 N.pl3 120  ARG120      0.1354
     64  NH2       61.1780    2.9010   28.9470 N.pl3 120  ARG120      0.1354
     65  N         64.7070    5.9680   22.0880 N.am  121  HIS121     -0.1976
     66  CA        65.3170    7.0940   21.3820 C.3   121  HIS121      0.1656
     67  C         65.7580    8.1520   22.3790 C.2   121  HIS121      0.2291
     68  O         65.0280    8.4640   23.3160 O.2   121  HIS121     -0.2864
     69  CB        64.2810    7.6920   20.4020 C.3   121  HIS121      0.0771
     70  CG        64.6630    9.0210   19.8340 C.ar  121  HIS121      0.0820
     71  ND1       65.7350    9.1880   18.9910 N.ar  121  HIS121     -0.2267
     72  CD2       64.1160   10.2510   19.9930 C.ar  121  HIS121      0.1154
     73  CE1       65.8360   10.4620   18.6490 C.ar  121  HIS121      0.1986
     74  NE2       64.8640   11.1280   19.2470 N.ar  121  HIS121     -0.2212
     75  N         69.7730   12.3890   29.9760 N.3   129  GLU129     -0.1245
     76  CA        68.6040   11.7770   29.3260 C.3   129  GLU129      0.1567
     77  C         68.8700   10.2660   29.1940 C.2   129  GLU129      0.2260
     78  O         67.9670    9.4580   29.3170 O.2   129  GLU129     -0.2867
     79  CB        68.3700   12.3860   27.9300 C.3   129  GLU129      0.0388
     80  CG        67.1000   11.8800   27.2710 C.3   129  GLU129      0.1160
     81  CD        66.9090   12.3970   25.8550 C.2   129  GLU129      0.3649
     82  OE1       67.7350   13.2230   25.3900 O.co2 129  GLU129     -0.2457
     83  OE2       65.9130   11.9890   25.2400 O.co2 129  GLU129     -0.2457
     84  N         66.9200    6.9950   30.8350 N.3   133  ASN133     -0.1240
     85  CA        66.3970    5.8910   30.0390 C.3   133  ASN133      0.1653
     86  C         66.8840    4.5270   30.5280 C.2   133  ASN133      0.2266
     87  O         66.1190    3.5670   30.5000 O.2   133  ASN133     -0.2867
     88  CB        66.6520    6.1370   28.5410 C.3   133  ASN133      0.1155
     89  CG        65.5780    7.0120   27.9350 C.2   133  ASN133      0.2627
     90  OD1       64.5250    6.5170   27.5150 O.2   133  ASN133     -0.2716
     91  ND2       65.7780    8.3350   27.9980 N.am  133  ASN133     -0.0877
@<TRIPOS>BOND
     1    73    71   ar
     2    73    74   ar
     3    71    70   ar
     4    74    72   ar
     5    70    72   ar
     6    70    69    1
     7    69    66    1
     8    66    65    1
     9    66    67    1
    10    65    56   am
    11    67    68    2
    12    57    56    2
    13    54    55    1
    14    56    55    1
    15    55    58    1
    16    58    59    1
    17     1     2    1
    18     8     7   ar
    19    83    81   ar
    20    82    81   ar
    21    59    60    1
    22     5     2    1
    23     5     6    1
    24    81    80    1
    25     2     3    1
    26     7     6    1
    27     7     9   ar
    28    60    61    1
    29    80    79    1
    30    46    45    2
    31    90    89    2
    32     3     4    2
    33    47    45   am
    34    61    62    2
    35    18    20   ar
    36    18    16   ar
    37    79    76    1
    38    89    91   am
    39    89    88    1
    40    45    44    1
    41    63    62    1
    42    53    52    1
    43    20    19   ar
    44    62    64    1
    45    88    85    1
    46    16    15   ar
    47    44    41    1
    48    77    78    2
    49    77    76    1
    50    52    49    1
    51    24    23    2
    52    38    37    1
    53    76    75    1
    54    19    17   ar
    55    30    28   ar
    56    30    31   ar
    57    40    41    1
    58    40    35   am
    59    15    17   ar
    60    15    14    1
    61    37    34    1
    62    37    39    1
    63    85    86    1
    64    85    84    1
    65    28    26   ar
    66    34    35    1
    67    34    33    1
    68    41    42    1
    69    48    42   am
    70    48    49    1
    71    23    33   am
    72    23    22    1
    73    42    43    2
    74    49    50    1
    75    87    86    2
    76    51    50    2
    77    35    36    2
    78    32    31    1
    79    31    29   ar
    80    14    11    1
    81    21    22    1
    82    21    12   am
    83    26    25    1
    84    26    27   ar
    85    22    25    1
    86    11    12    1
    87    11    10    1
    88    12    13    2
    89    29    27   ar
