@<TRIPOS>MOLECULE
tmp/1ecfB00.pdb
 132 129 0 0 0
SMALL
GASTEIGER

@<TRIPOS>ATOM
      1  N         86.9970   25.4920   44.7680 N.3   258  TYR258     -0.1241
      2  CA        86.2210   26.6920   44.4290 C.3   258  TYR258      0.1605
      3  C         84.7830   26.5210   43.9540 C.2   258  TYR258      0.2264
      4  O         84.0300   27.4990   43.9350 O.2   258  TYR258     -0.2867
      5  CB        86.9680   27.5290   43.3690 C.3   258  TYR258      0.0534
      6  CG        86.7800   26.9870   41.9750 C.ar  258  TYR258     -0.0201
      7  CD1       87.5840   25.9750   41.5130 C.ar  258  TYR258     -0.0009
      8  CD2       85.6750   27.3660   41.1960 C.ar  258  TYR258     -0.0009
      9  CE1       87.2880   25.3260   40.3180 C.ar  258  TYR258      0.0417
     10  CE2       85.3640   26.7200   40.0000 C.ar  258  TYR258      0.0417
     11  CZ        86.1800   25.6890   39.5670 C.ar  258  TYR258      0.1957
     12  OH        85.9020   24.9850   38.3990 O.3   258  TYR258     -0.2866
     13  N         92.4360   37.5870   44.3300 N.3   301  ILE301     -0.1231
     14  CA        91.7560   37.8700   43.0770 C.3   301  ILE301      0.1678
     15  C         90.4120   37.2890   43.4180 C.2   301  ILE301      0.2434
     16  O         90.2850   36.0800   43.5530 O.2   301  ILE301     -0.2733
     17  CB        92.4320   37.1540   41.8760 C.3   301  ILE301      0.0265
     18  CG1       93.7690   37.8400   41.5600 C.3   301  ILE301      0.0019
     19  CG2       91.5290   37.2260   40.6380 C.3   301  ILE301      0.0020
     20  CD1       94.6660   37.0500   40.6210 C.3   301  ILE301      0.0001
     21  N         89.3970   38.1530   43.6310 N.am  302  PRO302     -0.2718
     22  CA        88.0110   37.7880   43.9970 C.3   302  PRO302      0.1535
     23  C         87.4170   36.7170   43.0940 C.2   302  PRO302      0.2598
     24  O         87.8310   36.6050   41.9480 O.2   302  PRO302     -0.2715
     25  CB        87.2490   39.1190   43.8720 C.3   302  PRO302      0.0310
     26  CG        88.3020   40.1620   44.0200 C.3   302  PRO302      0.0237
     27  CD        89.4600   39.5720   43.2340 C.3   302  PRO302      0.0939
     28  N         86.4840   35.8990   43.5930 N.am  303  GLU303     -0.1964
     29  CA        85.9640   35.9630   44.9650 C.3   303  GLU303      0.1733
     30  C         86.3530   34.8110   45.9090 C.2   303  GLU303      0.2617
     31  O         86.4870   35.0110   47.1300 O.2   303  GLU303     -0.2715
     32  CB        84.4380   36.0580   44.9340 C.3   303  GLU303      0.0429
     33  CG        83.8980   37.4560   44.7120 C.3   303  GLU303      0.1163
     34  CD        84.0440   38.3890   45.9380 C.2   303  GLU303      0.3649
     35  OE1       84.6330   37.9780   46.9940 O.co2 303  GLU303     -0.2457
     36  OE2       83.5370   39.5440   45.8230 O.co2 303  GLU303     -0.2457
     37  N         86.5570   33.6280   45.3470 N.am  304  THR304     -0.1951
     38  CA        86.9050   32.4510   46.1320 C.3   304  THR304      0.1897
     39  C         88.1620   32.5530   46.9880 C.2   304  THR304      0.2313
     40  O         88.1920   31.9990   48.1000 O.2   304  THR304     -0.2863
     41  CB        86.9560   31.1740   45.2230 C.3   304  THR304      0.1794
     42  OG1       85.6170   30.8290   44.8520 O.3   304  THR304     -0.2208
     43  CG2       87.5840   29.9580   45.9430 C.3   304  THR304      0.0378
     44  N         85.5620   42.8110   42.3620 N.3   326  LYS326     -0.1245
     45  CA        84.8770   42.1240   41.2860 C.3   326  LYS326      0.1561
     46  C         83.6190   42.8930   40.9670 C.2   326  LYS326      0.2260
     47  O         82.8690   43.2520   41.8680 O.2   326  LYS326     -0.2867
     48  CB        84.5120   40.7090   41.7000 C.3   326  LYS326      0.0271
     49  CG        83.7180   39.9660   40.6490 C.3   326  LYS326      0.0035
     50  CD        83.6260   38.4930   40.9650 C.3   326  LYS326      0.0206
     51  CE        82.7710   37.7650   39.9350 C.3   326  LYS326      0.1093
     52  NZ        82.6220   36.3080   40.2750 N.3   326  LYS326     -0.1314
     53  N         95.0650   33.4860   43.4740 N.3   366  ASP366     -0.1225
     54  CA        93.8730   33.0500   42.7270 C.3   366  ASP366      0.1805
     55  C         93.6290   31.5820   43.0850 C.2   366  ASP366      0.2598
     56  O         94.5260   30.8990   43.6250 O.2   366  ASP366     -0.2718
     57  CB        94.0090   33.2490   41.2050 C.3   366  ASP366      0.1424
     58  CG        92.6550   33.5000   40.5280 C.2   366  ASP366      0.3668
     59  OD1       91.6070   33.3460   41.1940 O.co2 366  ASP366     -0.2456
     60  OD2       92.6320   33.8950   39.3420 O.co2 366  ASP366     -0.2456
     61  N         92.3980   31.1230   42.8970 N.am  367  ASP367     -0.1960
     62  CA        92.0600   29.7580   43.2640 C.3   367  ASP367      0.1840
     63  C         92.6940   28.7030   42.3700 C.2   367  ASP367      0.2623
     64  O         93.0460   27.6230   42.8360 O.2   367  ASP367     -0.2715
     65  CB        90.5510   29.5940   43.2850 C.3   367  ASP367      0.1450
     66  CG        89.8920   30.1690   42.0410 C.2   367  ASP367      0.3671
     67  OD1       89.8150   29.4550   41.0250 O.co2 367  ASP367     -0.2456
     68  OD2       89.4540   31.3310   42.0710 O.co2 367  ASP367     -0.2456
     69  N         92.8820   29.0370   41.0960 N.am  368  SER368     -0.1936
     70  CA        93.4360   28.1030   40.1390 C.3   368  SER368      0.2055
     71  C         93.7890   28.8370   38.8590 C.2   368  SER368      0.2643
     72  O         93.4750   30.0090   38.7070 O.2   368  SER368     -0.2714
     73  CB        92.3870   27.0370   39.8260 C.3   368  SER368      0.2130
     74  OG        91.1590   27.6600   39.4540 O.3   368  SER368     -0.2179
     75  N         94.4900   28.1390   37.9720 N.am  369  ILE369     -0.1963
     76  CA        94.8960   28.6590   36.6660 C.3   369  ILE369      0.1727
     77  C         94.4760   27.5550   35.6970 C.2   369  ILE369      0.2616
     78  O         94.7900   26.3750   35.9090 O.2   369  ILE369     -0.2715
     79  CB        96.4240   28.8950   36.5940 C.3   369  ILE369      0.0290
     80  CG1       96.8240   30.0390   37.5350 C.3   369  ILE369      0.0022
     81  CG2       96.8500   29.2200   35.1810 C.3   369  ILE369      0.0023
     82  CD1       98.3270   30.1230   37.7860 C.3   369  ILE369      0.0001
     83  N         93.6820   27.9240   34.7010 N.am  370  VAL370     -0.1963
     84  CA        93.2030   26.9750   33.6970 C.3   370  VAL370      0.1727
     85  C         93.8530   27.2290   32.3100 C.2   370  VAL370      0.2616
     86  O         94.8030   26.5350   31.9120 O.2   370  VAL370     -0.2715
     87  CB        91.6750   27.0410   33.6060 C.3   370  VAL370      0.0290
     88  CG1       91.1570   26.0170   32.5930 C.3   370  VAL370      0.0023
     89  CG2       91.0600   26.7770   34.9840 C.3   370  VAL370      0.0023
     90  N         93.3710   28.2570   31.6170 N.am  371  ARG371     -0.1963
     91  CA        93.8910   28.6390   30.3080 C.3   371  ARG371      0.1729
     92  C         95.0570   29.5640   30.5070 C.2   371  ARG371      0.2617
     93  O         95.9720   29.6040   29.6860 O.2   371  ARG371     -0.2715
     94  CB        92.8340   29.3920   29.5140 C.3   371  ARG371      0.0348
     95  CG        91.7270   28.5350   28.9370 C.3   371  ARG371      0.0492
     96  CD        90.7380   29.4460   28.1890 C.3   371  ARG371      0.2205
     97  NE        89.5090   28.7420   27.8330 N.pl3 371  ARG371     -0.0865
     98  CZ        89.4770   27.6770   27.0390 C.cat 371  ARG371      0.5346
     99  NH1       90.5990   27.2050   26.5110 N.pl3 371  ARG371      0.1354
    100  NH2       88.3350   27.0600   26.8040 N.pl3 371  ARG371      0.1354
    101  N         95.0150   30.3220   31.6000 N.am  372  GLY372     -0.1940
    102  CA        96.0940   31.2460   31.8950 C.3   372  GLY372      0.2014
    103  C         95.8970   32.6190   31.2670 C.2   372  GLY372      0.2640
    104  O         96.6330   33.5520   31.5820 O.2   372  GLY372     -0.2714
    105  N         94.8910   32.7540   30.4110 N.am  373  THR373     -0.1936
    106  CA        94.6120   34.0200   29.7330 C.3   373  THR373      0.2028
    107  C         94.1880   35.1590   30.6930 C.2   373  THR373      0.2643
    108  O         94.7780   36.2370   30.6790 O.2   373  THR373     -0.2714
    109  CB        93.5570   33.8220   28.6200 C.3   373  THR373      0.1808
    110  OG1       94.0390   32.8250   27.7050 O.3   373  THR373     -0.2208
    111  CG2       93.3450   35.1360   27.8340 C.3   373  THR373      0.0379
    112  N         93.1770   34.9230   31.5190 N.am  374  THR374     -0.1936
    113  CA        92.7640   35.9470   32.4850 C.3   374  THR374      0.2028
    114  C         93.8620   36.2580   33.5080 C.2   374  THR374      0.2642
    115  O         94.0060   37.4100   33.9240 O.2   374  THR374     -0.2714
    116  CB        91.4860   35.5850   33.2000 C.3   374  THR374      0.1808
    117  OG1       90.4740   35.3030   32.2380 O.3   374  THR374     -0.2208
    118  CG2       90.9990   36.7690   34.0340 C.3   374  THR374      0.0379
    119  N         94.6920   35.2610   33.8310 N.am  375  SER375     -0.1949
    120  CA        95.7970   35.4460   34.7790 C.3   375  SER375      0.1924
    121  C         96.7710   36.4340   34.2020 C.2   375  SER375      0.2314
    122  O         97.2970   37.2900   34.9240 O.2   375  SER375     -0.2863
    123  CB        96.5710   34.1530   35.0090 C.3   375  SER375      0.2116
    124  OG        95.6840   33.1280   35.3990 O.3   375  SER375     -0.2180
    125  N         95.1990   39.9000   34.4760 N.3   378  ILE378     -0.1245
    126  CA        95.1570   40.4250   35.8520 C.3   378  ILE378      0.1561
    127  C         96.5320   40.9610   36.2700 C.2   378  ILE378      0.2260
    128  O         96.6610   42.0610   36.8460 O.2   378  ILE378     -0.2867
    129  CB        94.6560   39.3410   36.8090 C.3   378  ILE378      0.0252
    130  CG1       93.1800   39.0820   36.4940 C.3   378  ILE378      0.0019
    131  CG2       94.8930   39.7550   38.2520 C.3   378  ILE378      0.0019
    132  CD1       92.5240   37.9580   37.2490 C.3   378  ILE378      0.0001
@<TRIPOS>BOND
     1    99    98    1
     2   100    98    1
     3    98    97    2
     4   110   109    1
     5    97    96    1
     6   111   109    1
     7    96    95    1
     8   109   106    1
     9    95    94    1
    10    94    91    1
    11    93    92    2
    12   106   105    1
    13   106   107    1
    14    91    92    1
    15    91    90    1
    16   105   103   am
    17    92   101   am
    18   108   107    2
    19   107   112   am
    20   103   104    2
    21   103   102    1
    22   112   113    1
    23   101   102    1
    24    90    85   am
    25    86    85    2
    26   117   116    1
    27    85    84    1
    28   113   116    1
    29   113   114    1
    30    88    87    1
    31   116   118    1
    32   114   119   am
    33   114   115    2
    34    87    84    1
    35    87    89    1
    36    84    83    1
    37   119   120    1
    38   121   120    1
    39   121   122    2
    40   125   126    1
    41    83    77   am
    42   120   123    1
    43   123   124    1
    44    81    79    1
    45    77    78    2
    46    77    76    1
    47   126   127    1
    48   126   129    1
    49   127   128    2
    50   130   129    1
    51   130   132    1
    52    79    76    1
    53    79    80    1
    54    76    75    1
    55   129   131    1
    56    80    82    1
    57    75    71   am
    58    12    11    1
    59    72    71    2
    60    71    70    1
    61    60    58   ar
    62    74    73    1
    63    11    10   ar
    64    11     9   ar
    65    73    70    1
    66    51    52    1
    67    51    50    1
    68    10     8   ar
    69    70    69    1
    70     9     7   ar
    71    58    59   ar
    72    58    57    1
    73    20    18    1
    74    19    17    1
    75    49    50    1
    76    49    48    1
    77    46    45    1
    78    46    47    2
    79    67    66   ar
    80    69    63   am
    81     8     6   ar
    82    57    54    1
    83    45    48    1
    84    45    44    1
    85     7     6   ar
    86    18    17    1
    87    17    14    1
    88    24    23    2
    89     6     5    1
    90    66    68   ar
    91    66    65    1
    92    63    64    2
    93    63    62    1
    94    54    55    1
    95    54    53    1
    96    61    55   am
    97    61    62    1
    98    14    15    1
    99    14    13    1
   100    55    56    2
   101    23    28   am
   102    23    22    1
   103    27    21    1
   104    27    26    1
   105    62    65    1
   106     5     2    1
   107    15    16    2
   108    15    21   am
   109    28    29    1
   110    21    22    1
   111    25    22    1
   112    25    26    1
   113     4     3    2
   114     3     2    1
   115     2     1    1
   116    33    32    1
   117    33    34    1
   118    42    41    1
   119    32    29    1
   120    29    30    1
   121    41    43    1
   122    41    38    1
   123    37    30   am
   124    37    38    1
   125    36    34   ar
   126    30    31    2
   127    34    35   ar
   128    38    39    1
   129    39    40    2
