@<TRIPOS>MOLECULE
tmp/1ecfB01.pdb
 82 78 0 0 0
SMALL
GASTEIGER

@<TRIPOS>ATOM
      1  N         55.9100   20.8910   34.7790 N.3    44  LEU44      -0.1231
      2  CA        57.2840   21.2710   34.5400 C.3    44  LEU44       0.1693
      3  C         57.5010   22.6400   33.9660 C.2    44  LEU44       0.2592
      4  O         56.7160   23.1030   33.1350 O.2    44  LEU44      -0.2718
      5  CB        57.9160   20.2790   33.5490 C.3    44  LEU44       0.0284
      6  CG        59.2310   20.6820   32.8730 C.3    44  LEU44       0.0019
      7  CD1       60.4370   20.4550   33.8000 C.3    44  LEU44       0.0001
      8  CD2       59.4190   19.8800   31.5760 C.3    44  LEU44       0.0001
      9  N         58.5760   23.2760   34.4150 N.am   45  ARG45      -0.1966
     10  CA        59.0190   24.5580   33.8800 C.3    45  ARG45       0.1729
     11  C         60.5460   24.5420   33.8790 C.2    45  ARG45       0.2616
     12  O         61.1620   24.3440   34.9350 O.2    45  ARG45      -0.2715
     13  CB        58.5300   25.7780   34.6690 C.3    45  ARG45       0.0348
     14  CG        59.2800   27.0710   34.2520 C.3    45  ARG45       0.0492
     15  CD        59.0930   27.4610   32.7550 C.3    45  ARG45       0.2205
     16  NE        59.7290   28.7510   32.4640 N.pl3  45  ARG45      -0.0865
     17  CZ        59.8540   29.2950   31.2590 C.cat  45  ARG45       0.5346
     18  NH1       59.3830   28.6670   30.1940 N.pl3  45  ARG45       0.1354
     19  NH2       60.4660   30.4730   31.1250 N.pl3  45  ARG45       0.1354
     20  N         61.1390   24.6260   32.6800 N.am   46  LYS46      -0.1963
     21  CA        62.5800   24.6870   32.5010 C.3    46  LYS46       0.1728
     22  C         62.8620   25.5990   31.2890 C.2    46  LYS46       0.2616
     23  O         62.0350   25.6780   30.3760 O.2    46  LYS46      -0.2715
     24  CB        63.2030   23.3040   32.3210 C.3    46  LYS46       0.0311
     25  CG        62.6990   22.4730   31.1430 C.3    46  LYS46       0.0038
     26  CD        63.5970   21.2340   30.9370 C.3    46  LYS46       0.0206
     27  CE        63.0600   20.3040   29.8150 C.3    46  LYS46       0.1093
     28  NZ        63.9060   19.0580   29.6990 N.3    46  LYS46      -0.1314
     29  N         63.9740   26.3180   31.3140 N.am   47  ALA47      -0.1977
     30  CA        64.3380   27.2350   30.2300 C.3    47  ALA47       0.1597
     31  C         65.7290   27.7490   30.5390 C.2    47  ALA47       0.2287
     32  O         66.2710   27.4910   31.6410 O.2    47  ALA47      -0.2864
     33  CB        63.3500   28.4190   30.1880 C.3    47  ALA47       0.0319
     34  N         54.2830   30.3840   35.9560 N.3    59  HIS59      -0.1241
     35  CA        54.9300   29.0740   35.9620 C.3    59  HIS59       0.1621
     36  C         54.7890   28.4720   37.3570 C.2    59  HIS59       0.2264
     37  O         54.4290   27.3130   37.4770 O.2    59  HIS59      -0.2867
     38  CB        56.4070   29.1780   35.5840 C.3    59  HIS59       0.0745
     39  CG        56.6510   29.8990   34.2920 C.ar   59  HIS59       0.0817
     40  ND1       56.1630   29.4560   33.0800 N.ar   59  HIS59      -0.2268
     41  CD2       57.3560   31.0220   34.0210 C.ar   59  HIS59       0.1154
     42  CE1       56.5610   30.2670   32.1170 C.ar   59  HIS59       0.1986
     43  NE2       57.2880   31.2250   32.6640 N.ar   59  HIS59      -0.2212
     44  N         51.4680   26.9140   37.9170 N.3    62  ARG62      -0.1245
     45  CA        51.2520   25.5740   37.3880 C.3    62  ARG62       0.1563
     46  C         52.0520   24.4820   38.1170 C.2    62  ARG62       0.2260
     47  O         51.6590   23.3340   38.1050 O.2    62  ARG62      -0.2867
     48  CB        51.3930   25.5250   35.8540 C.3    62  ARG62       0.0307
     49  CG        52.7880   25.4430   35.3350 C.3    62  ARG62       0.0489
     50  CD        52.8190   25.6940   33.8060 C.3    62  ARG62       0.2205
     51  NE        54.2010   25.6060   33.3120 N.pl3  62  ARG62      -0.0865
     52  CZ        54.7100   26.3360   32.3160 C.cat  62  ARG62       0.5346
     53  NH1       53.9570   27.2320   31.6650 N.pl3  62  ARG62       0.1354
     54  NH2       55.9880   26.1890   31.9880 N.pl3  62  ARG62       0.1354
     55  N         72.2690   25.9300   24.0680 N.3    82  ALA82      -0.1231
     56  CA        71.3490   25.6900   22.9720 C.3    82  ALA82       0.1694
     57  C         70.4410   24.4640   23.1940 C.2    82  ALA82       0.2593
     58  O         69.2520   24.4860   22.8440 O.2    82  ALA82      -0.2718
     59  CB        72.1440   25.5550   21.6520 C.3    82  ALA82       0.0304
     60  N         70.9720   23.4220   23.8270 N.am   83  SER83      -0.1938
     61  CA        70.2040   22.1900   24.0220 C.3    83  SER83       0.2055
     62  C         69.1530   22.2120   25.1280 C.2    83  SER83       0.2642
     63  O         69.1160   23.1310   25.9570 O.2    83  SER83      -0.2714
     64  CB        71.1580   21.0210   24.2370 C.3    83  SER83       0.2130
     65  OG        71.9360   21.2280   25.4120 O.3    83  SER83      -0.2179
     66  N         68.3070   21.1900   25.1370 N.am   84  GLU84      -0.1976
     67  CA        67.2380   21.0820   26.1120 C.3    84  GLU84       0.1602
     68  C         67.8230   20.9290   27.5320 C.2    84  GLU84       0.2287
     69  O         68.8190   20.2220   27.7500 O.2    84  GLU84      -0.2864
     70  CB        66.3200   19.9150   25.7690 C.3    84  GLU84       0.0415
     71  CG        65.1810   19.7350   26.7430 C.3    84  GLU84       0.1163
     72  CD        64.2630   18.6000   26.3640 C.2    84  GLU84       0.3649
     73  OE1       64.3850   18.1670   25.1980 O.co2  84  GLU84      -0.2457
     74  OE2       63.4260   18.1360   27.1960 O.co2  84  GLU84      -0.2457
     75  N         66.6650   11.9890   22.5220 N.3   123  ASN123     -0.1240
     76  CA        66.5210   13.1840   21.7090 C.3   123  ASN123      0.1653
     77  C         67.5830   14.2650   21.7780 C.2   123  ASN123      0.2266
     78  O         67.6750   15.0850   20.8680 O.2   123  ASN123     -0.2867
     79  CB        65.1540   13.8240   21.9010 C.3   123  ASN123      0.1155
     80  CG        64.6810   14.5420   20.6320 C.2   123  ASN123      0.2627
     81  OD1       64.5190   13.9060   19.5730 O.2   123  ASN123     -0.2716
     82  ND2       64.5380   15.8670   20.7060 N.am  123  ASN123     -0.0877
@<TRIPOS>BOND
     1    81    80    2
     2    80    82   am
     3    80    79    1
     4    78    77    2
     5    59    56    1
     6    76    77    1
     7    76    79    1
     8    76    75    1
     9    58    57    2
    10    56    57    1
    11    56    55    1
    12    57    60   am
    13    60    61    1
    14    61    64    1
    15    61    62    1
    16    64    65    1
    17    62    66   am
    18    62    63    2
    19    66    67    1
    20    73    72   ar
    21    70    67    1
    22    70    71    1
    23    67    68    1
    24    72    71    1
    25    72    74   ar
    26    68    69    2
    27    28    27    1
    28    27    26    1
    29    33    30    1
    30    18    17    1
    31    30    31    1
    32    30    29    1
    33    23    22    2
    34    31    32    2
    35    26    25    1
    36    19    17    1
    37    25    24    1
    38    17    16    2
    39    22    29   am
    40    22    21    1
    41     8     6    1
    42    53    52    1
    43    54    52    1
    44    42    43   ar
    45    42    40   ar
    46    52    51    2
    47    24    21    1
    48    16    15    1
    49    21    20    1
    50    43    41   ar
    51    20    11   am
    52    15    14    1
    53     6     5    1
    54     6     7    1
    55    40    39   ar
    56     4     3    2
    57    51    50    1
    58     5     2    1
    59    50    49    1
    60    11    10    1
    61    11    12    2
    62    10     9    1
    63    10    13    1
    64     3     9   am
    65     3     2    1
    66    41    39   ar
    67    14    13    1
    68    39    38    1
    69     2     1    1
    70    49    48    1
    71    38    35    1
    72    48    45    1
    73    34    35    1
    74    35    36    1
    75    36    37    2
    76    45    44    1
    77    45    46    1
    78    47    46    2
