@<TRIPOS>MOLECULE
tmp/1ecjC00.pdb
 168 165 0 0 0
SMALL
GASTEIGER

@<TRIPOS>ATOM
      1  N         20.5470   53.7850   10.8970 N.3    74  TYR74      -0.1241
      2  CA        20.7880   53.1390    9.6210 C.3    74  TYR74       0.1605
      3  C         22.0630   53.8860    9.2810 C.2    74  TYR74       0.2264
      4  O         22.0830   55.1170    9.3110 O.2    74  TYR74      -0.2867
      5  CB        19.6820   53.5040    8.6400 C.3    74  TYR74       0.0534
      6  CG        19.6270   52.6270    7.4090 C.ar   74  TYR74      -0.0201
      7  CD1       20.5580   52.7800    6.3770 C.ar   74  TYR74      -0.0009
      8  CD2       18.6340   51.6530    7.2670 C.ar   74  TYR74      -0.0009
      9  CE1       20.5050   51.9880    5.2280 C.ar   74  TYR74       0.0417
     10  CE2       18.5700   50.8530    6.1230 C.ar   74  TYR74       0.0417
     11  CZ        19.5120   51.0250    5.1090 C.ar   74  TYR74       0.1957
     12  OH        19.4700   50.2250    3.9930 O.3    74  TYR74      -0.2866
     13  N         10.3030   58.3030   -1.1840 N.3   254  PHE254     -0.1241
     14  CA        10.9050   57.0040   -0.9290 C.3   254  PHE254      0.1605
     15  C         10.3180   56.3130    0.2920 C.2   254  PHE254      0.2264
     16  O         10.3680   55.0820    0.3840 O.2   254  PHE254     -0.2867
     17  CB        12.4220   57.0920   -0.8060 C.3   254  PHE254      0.0534
     18  CG        13.1180   55.8800   -1.3180 C.ar  254  PHE254     -0.0203
     19  CD1       12.9690   55.5050   -2.6450 C.ar  254  PHE254     -0.0042
     20  CD2       13.8700   55.0790   -0.4770 C.ar  254  PHE254     -0.0042
     21  CE1       13.5640   54.3530   -3.1380 C.ar  254  PHE254     -0.0003
     22  CE2       14.4770   53.9170   -0.9540 C.ar  254  PHE254     -0.0003
     23  CZ        14.3180   53.5490   -2.2900 C.ar  254  PHE254     -0.0000
     24  N          9.3540   52.2990   -0.2790 N.3   258  TYR258     -0.1241
     25  CA         9.9710   51.1630    0.3690 C.3   258  TYR258      0.1605
     26  C         10.3300   51.3210    1.8470 C.2   258  TYR258      0.2264
     27  O         10.1910   50.3760    2.6160 O.2   258  TYR258     -0.2867
     28  CB        11.2170   50.7710   -0.4430 C.3   258  TYR258      0.0534
     29  CG        12.2370   49.9860    0.3330 C.ar  258  TYR258     -0.0201
     30  CD1       12.0670   48.6210    0.5610 C.ar  258  TYR258     -0.0009
     31  CD2       13.3620   50.6110    0.8610 C.ar  258  TYR258     -0.0009
     32  CE1       12.9960   47.8920    1.2980 C.ar  258  TYR258      0.0417
     33  CE2       14.2970   49.8980    1.6030 C.ar  258  TYR258      0.0417
     34  CZ        14.1110   48.5360    1.8190 C.ar  258  TYR258      0.1957
     35  OH        15.0440   47.8260    2.5530 O.3   258  TYR258     -0.2866
     36  N          8.8700   39.9270   -5.7630 N.3   301  ILE301     -0.1231
     37  CA        10.1030   39.7080   -5.0420 C.3   301  ILE301      0.1678
     38  C          9.7530   40.2360   -3.6630 C.2   301  ILE301      0.2434
     39  O          9.3760   41.3990   -3.5170 O.2   301  ILE301     -0.2733
     40  CB        11.2260   40.5070   -5.6680 C.3   301  ILE301      0.0265
     41  CG1       11.4810   39.9630   -7.0750 C.3   301  ILE301      0.0019
     42  CG2       12.4750   40.4580   -4.7850 C.3   301  ILE301      0.0020
     43  CD1       12.4190   40.8100   -7.8900 C.3   301  ILE301      0.0001
     44  N          9.7840   39.3660   -2.6470 N.am  302  PRO302     -0.2729
     45  CA         9.4530   39.7690   -1.2800 C.3   302  PRO302      0.1401
     46  C         10.3070   40.9470   -0.8170 C.2   302  PRO302      0.2269
     47  O         11.4930   41.0230   -1.1500 O.2   302  PRO302     -0.2865
     48  CB         9.7470   38.5010   -0.4750 C.3   302  PRO302      0.0296
     49  CG         9.4960   37.4170   -1.4560 C.3   302  PRO302      0.0237
     50  CD        10.1950   37.9570   -2.6750 C.3   302  PRO302      0.0939
     51  N          8.1130   44.0090    0.0250 N.3   304  THR304     -0.1218
     52  CA         7.4360   45.2470   -0.3200 C.3   304  THR304      0.1862
     53  C          6.5540   45.0660   -1.5680 C.2   304  THR304      0.2287
     54  O          5.4070   45.5020   -1.6120 O.2   304  THR304     -0.2866
     55  CB         8.4930   46.3450   -0.5920 C.3   304  THR304      0.1770
     56  OG1        9.7080   46.0070    0.1000 O.3   304  THR304     -0.2211
     57  CG2        7.9960   47.7110   -0.1140 C.3   304  THR304      0.0375
     58  N          9.6000   44.0160   -8.6070 N.3   366  ASP366     -0.1225
     59  CA        10.4320   44.4580   -7.4930 C.3   366  ASP366      0.1805
     60  C         10.0340   45.8900   -7.1600 C.2   366  ASP366      0.2598
     61  O          9.4230   46.5740   -7.9950 O.2   366  ASP366     -0.2718
     62  CB        11.9230   44.3880   -7.8280 C.3   366  ASP366      0.1424
     63  CG        12.7860   44.1950   -6.5850 C.2   366  ASP366      0.3668
     64  OD1       12.2220   44.1280   -5.4700 O.co2 366  ASP366     -0.2456
     65  OD2       14.0250   44.0970   -6.7110 O.co2 366  ASP366     -0.2456
     66  N         10.3280   46.3300   -5.9360 N.am  367  ASP367     -0.1960
     67  CA         9.9550   47.6840   -5.5280 C.3   367  ASP367      0.1840
     68  C         10.8740   48.7380   -6.1130 C.2   367  ASP367      0.2623
     69  O         10.4220   49.8160   -6.4660 O.2   367  ASP367     -0.2715
     70  CB         9.8700   47.8170   -3.9960 C.3   367  ASP367      0.1450
     71  CG        11.1460   47.3830   -3.2970 C.2   367  ASP367      0.3671
     72  OD1       12.0450   48.2290   -3.1270 O.co2 367  ASP367     -0.2456
     73  OD2       11.2520   46.1930   -2.9220 O.co2 367  ASP367     -0.2456
     74  N         12.1510   48.4140   -6.2630 N.am  368  SER368     -0.1936
     75  CA        13.1010   49.3770   -6.7970 C.3   368  SER368      0.2055
     76  C         14.3950   48.7120   -7.2510 C.2   368  SER368      0.2643
     77  O         14.6490   47.5410   -6.9540 O.2   368  SER368     -0.2714
     78  CB        13.4290   50.4090   -5.7290 C.3   368  SER368      0.2130
     79  OG        14.0840   49.7750   -4.6430 O.3   368  SER368     -0.2179
     80  N         15.2110   49.4790   -7.9620 N.am  369  ILE369     -0.1963
     81  CA        16.4930   49.0170   -8.4560 C.3   369  ILE369      0.1727
     82  C         17.5030   50.1160   -8.1730 C.2   369  ILE369      0.2616
     83  O         17.3320   51.2570   -8.6010 O.2   369  ILE369     -0.2715
     84  CB        16.4630   48.7160   -9.9660 C.3   369  ILE369      0.0290
     85  CG1       15.3580   47.6930  -10.2810 C.3   369  ILE369      0.0022
     86  CG2       17.8200   48.1720  -10.4110 C.3   369  ILE369      0.0023
     87  CD1       15.2410   47.3150  -11.7490 C.3   369  ILE369      0.0001
     88  N         18.5370   49.7520   -7.4270 N.am  370  VAL370     -0.1963
     89  CA        19.5980   50.6640   -7.0220 C.3   370  VAL370      0.1727
     90  C         20.9120   50.3350   -7.7290 C.2   370  VAL370      0.2616
     91  O         21.2780   50.9820   -8.6990 O.2   370  VAL370     -0.2715
     92  CB        19.7850   50.6190   -5.4760 C.3   370  VAL370      0.0290
     93  CG1       20.7730   51.6790   -5.0280 C.3   370  VAL370      0.0023
     94  CG2       18.4500   50.8490   -4.7810 C.3   370  VAL370      0.0023
     95  N         21.6230   49.3290   -7.2340 N.am  371  ARG371     -0.1963
     96  CA        22.8810   48.9170   -7.8460 C.3   371  ARG371      0.1729
     97  C         22.6660   47.9000   -8.9570 C.2   371  ARG371      0.2617
     98  O         23.5440   47.6820   -9.7840 O.2   371  ARG371     -0.2715
     99  CB        23.7960   48.2940   -6.8030 C.3   371  ARG371      0.0348
    100  CG        24.1580   49.1720   -5.6510 C.3   371  ARG371      0.0492
    101  CD        24.6680   48.2830   -4.5580 C.3   371  ARG371      0.2205
    102  NE        25.2590   49.0410   -3.4710 N.pl3 371  ARG371     -0.0865
    103  CZ        26.4870   49.5470   -3.4990 C.cat 371  ARG371      0.5346
    104  NH1       27.2680   49.3810   -4.5670 N.pl3 371  ARG371      0.1354
    105  NH2       26.9330   50.2310   -2.4530 N.pl3 371  ARG371      0.1354
    106  N         21.5230   47.2250   -8.9300 N.am  372  GLY372     -0.1940
    107  CA        21.2420   46.2360   -9.9510 C.3   372  GLY372      0.2014
    108  C         21.8950   44.8950   -9.6930 C.2   372  GLY372      0.2640
    109  O         21.5560   43.8990  -10.3340 O.2   372  GLY372     -0.2714
    110  N         22.8110   44.8560   -8.7320 N.am  373  THR373     -0.1936
    111  CA        23.5030   43.6200   -8.3710 C.3   373  THR373      0.2028
    112  C         22.4970   42.5550   -7.9440 C.2   373  THR373      0.2643
    113  O         22.5470   41.4030   -8.3770 O.2   373  THR373     -0.2714
    114  CB        24.4730   43.8680   -7.1960 C.3   373  THR373      0.1808
    115  OG1       25.2130   45.0770   -7.4320 O.3   373  THR373     -0.2208
    116  CG2       25.4510   42.7060   -7.0560 C.3   373  THR373      0.0379
    117  N         21.5630   42.9620   -7.1040 N.am  374  THR374     -0.1936
    118  CA        20.5440   42.0530   -6.6210 C.3   374  THR374      0.2028
    119  C         19.6920   41.5100   -7.7620 C.2   374  THR374      0.2642
    120  O         19.6270   40.2970   -7.9630 O.2   374  THR374     -0.2714
    121  CB        19.6410   42.7550   -5.6000 C.3   374  THR374      0.1808
    122  OG1       20.4590   43.4230   -4.6260 O.3   374  THR374     -0.2208
    123  CG2       18.7320   41.7430   -4.9140 C.3   374  THR374      0.0379
    124  N         19.0570   42.4080   -8.5160 N.am  375  SER375     -0.1949
    125  CA        18.1980   42.0120   -9.6380 C.3   375  SER375      0.1924
    126  C         18.8840   41.0990  -10.6440 C.2   375  SER375      0.2314
    127  O         18.2410   40.1980  -11.1730 O.2   375  SER375     -0.2863
    128  CB        17.5840   43.2260  -10.3370 C.3   375  SER375      0.2116
    129  OG        18.5160   44.2810  -10.4360 O.3   375  SER375     -0.2180
    130  N         18.7240   37.8620   -9.0540 N.3   378  ILE378     -0.1245
    131  CA        17.3580   37.3970   -8.9380 C.3   378  ILE378      0.1561
    132  C         16.9850   36.7740  -10.2820 C.2   378  ILE378      0.2260
    133  O         16.5480   35.6380  -10.3470 O.2   378  ILE378     -0.2867
    134  CB        16.4170   38.5540   -8.6240 C.3   378  ILE378      0.0252
    135  CG1       16.8340   39.1950   -7.3030 C.3   378  ILE378      0.0019
    136  CG2       14.9780   38.0680   -8.5700 C.3   378  ILE378      0.0019
    137  CD1       16.0270   40.4180   -6.9130 C.3   378  ILE378      0.0001
    138  N         17.8990   59.2930    3.7980 N.3   407  ILE407     -0.1231
    139  CA        17.8170   57.9270    3.2740 C.3   407  ILE407      0.1692
    140  C         19.1980   57.5770    2.7300 C.2   407  ILE407      0.2592
    141  O         19.7780   58.3260    1.9480 O.2   407  ILE407     -0.2718
    142  CB        16.7520   57.7900    2.1440 C.3   407  ILE407      0.0266
    143  CG1       15.3580   58.1590    2.6770 C.3   407  ILE407      0.0019
    144  CG2       16.7950   56.3800    1.5260 C.3   407  ILE407      0.0020
    145  CD1       14.8340   57.2660    3.7760 C.3   407  ILE407      0.0001
    146  N         19.7450   56.4650    3.2010 N.am  408  ASP408     -0.1960
    147  CA        21.0650   56.0190    2.7770 C.3   408  ASP408      0.1840
    148  C         20.9750   55.4980    1.3560 C.2   408  ASP408      0.2622
    149  O         20.0410   54.7710    1.0170 O.2   408  ASP408     -0.2715
    150  CB        21.5900   54.9290    3.7140 C.3   408  ASP408      0.1450
    151  CG        22.9790   54.4490    3.3310 C.2   408  ASP408      0.3671
    152  OD1       23.8670   55.3070    3.0990 O.co2 408  ASP408     -0.2456
    153  OD2       23.1770   53.2150    3.2670 O.co2 408  ASP408     -0.2456
    154  N         21.9600   55.8570    0.5390 N.am  409  MET409     -0.1964
    155  CA        21.9960   55.4570   -0.8630 C.3   409  MET409      0.1722
    156  C         23.4360   55.4390   -1.3350 C.2   409  MET409      0.2458
    157  O         24.2650   56.1890   -0.8220 O.2   409  MET409     -0.2730
    158  CB        21.2340   56.4910   -1.6910 C.3   409  MET409      0.0427
    159  CG        20.6540   55.9780   -2.9810 C.3   409  MET409      0.0599
    160  SD        18.8860   56.1080   -2.8310 S.3   409  MET409     -0.1393
    161  CE        18.4440   54.4010   -2.5550 C.3   409  MET409      0.0692
    162  N         23.7710   54.5490   -2.2800 N.am  410  PRO410     -0.2727
    163  CA        25.1600   54.5390   -2.7460 C.3   410  PRO410      0.1402
    164  C         25.4430   55.7640   -3.6310 C.2   410  PRO410      0.2269
    165  O         24.5160   56.4160   -4.1270 O.2   410  PRO410     -0.2865
    166  CB        25.2560   53.2120   -3.5050 C.3   410  PRO410      0.0296
    167  CG        23.8730   52.9840   -3.9810 C.3   410  PRO410      0.0237
    168  CD        23.0330   53.3870   -2.7980 C.3   410  PRO410      0.0939
@<TRIPOS>BOND
     1    87    85    1
     2   127   126    2
     3   126   125    1
     4   129   128    1
     5    86    84    1
     6   133   132    2
     7   128   125    1
     8   109   108    2
     9   132   131    1
    10    85    84    1
    11    84    81    1
    12   107   108    1
    13   107   106    1
    14    98    97    2
    15   108   110   am
    16   125   124    1
    17   130   131    1
    18    97   106   am
    19    97    96    1
    20   131   134    1
    21   110   111    1
    22    91    90    2
    23   134   136    1
    24   134   135    1
    25    58    59    1
    26    83    82    2
    27   124   119   am
    28    81    82    1
    29    81    80    1
    30   113   112    2
    31   111   112    1
    32   111   114    1
    33    82    88   am
    34    61    60    2
    35   120   119    2
    36    80    76   am
    37   112   117   am
    38    43    41    1
    39    96    95    1
    40    96    99    1
    41    62    59    1
    42    62    63    1
    43   119   118    1
    44    90    95   am
    45    90    89    1
    46    59    60    1
    47   115   114    1
    48    88    89    1
    49   135   137    1
    50    76    77    2
    51    76    75    1
    52   114   116    1
    53    60    66   am
    54   117   118    1
    55    41    40    1
    56    89    92    1
    57    99   100    1
    58    75    74    1
    59    75    78    1
    60    65    63   ar
    61   118   121    1
    62    63    64   ar
    63    69    68    2
    64    74    68   am
    65    68    67    1
    66    66    67    1
    67    36    37    1
    68    78    79    1
    69    40    37    1
    70    40    42    1
    71   100   101    1
    72   121   123    1
    73   121   122    1
    74    67    70    1
    75    92    93    1
    76    92    94    1
    77    37    38    1
    78   104   103    1
    79   101   102    1
    80   165   164    2
    81    70    71    1
    82   167   166    1
    83   167   168    1
    84    38    39    2
    85    38    44   am
    86   164   163    1
    87   166   163    1
    88   103   102    2
    89   103   105    1
    90    71    72   ar
    91    71    73   ar
    92    21    19   ar
    93    21    23   ar
    94   159   160    1
    95   159   158    1
    96   160   161    1
    97   168   162    1
    98   163   162    1
    99    50    44    1
   100    50    49    1
   101    44    45    1
   102    19    18   ar
   103    23    22   ar
   104   162   156   am
   105   158   155    1
   106    54    53    2
   107    53    52    1
   108    49    48    1
   109   156   155    1
   110   156   157    2
   111    18    17    1
   112    18    20   ar
   113    45    46    1
   114    45    48    1
   115    13    14    1
   116    47    46    2
   117    22    20   ar
   118    14    17    1
   119    14    15    1
   120   155   154    1
   121    55    52    1
   122    55    57    1
   123    55    56    1
   124    28    29    1
   125    28    25    1
   126    52    51    1
   127    24    25    1
   128    15    16    2
   129    29    30   ar
   130    29    31   ar
   131    25    26    1
   132   154   148   am
   133    30    32   ar
   134    31    33   ar
   135   149   148    2
   136    32    34   ar
   137   148   147    1
   138   144   142    1
   139    33    34   ar
   140    34    35    1
   141    26    27    2
   142   141   140    2
   143   142   143    1
   144   142   139    1
   145   143   145    1
   146   140   146   am
   147   140   139    1
   148   147   146    1
   149   147   150    1
   150   152   151   ar
   151   153   151   ar
   152   139   138    1
   153   151   150    1
   154    12    11    1
   155    11     9   ar
   156    11    10   ar
   157     9     7   ar
   158    10     8   ar
   159     7     6   ar
   160     8     6   ar
   161     6     5    1
   162     5     2    1
   163     3     4    2
   164     3     2    1
   165     2     1    1
