@<TRIPOS>MOLECULE
tmp/1ecmB00.pdb
 116 106 0 0 0
SMALL
GASTEIGER

@<TRIPOS>ATOM
      1  N         34.0990   16.2460   41.2690 N.3    23  ARG23      -0.1245
      2  CA        33.2850   16.4940   42.4570 C.3    23  ARG23       0.1563
      3  C         32.2880   15.3670   42.6480 C.2    23  ARG23       0.2260
      4  O         31.9120   15.0430   43.7720 O.2    23  ARG23      -0.2867
      5  CB        32.5440   17.8250   42.3600 C.3    23  ARG23       0.0307
      6  CG        32.0360   18.3320   43.6950 C.3    23  ARG23       0.0489
      7  CD        31.1100   19.5280   43.5030 C.3    23  ARG23       0.2205
      8  NE        30.9270   20.3470   44.7090 N.pl3  23  ARG23      -0.0865
      9  CZ        30.0570   20.1020   45.6910 C.cat  23  ARG23       0.5346
     10  NH1       29.2950   19.0160   45.6670 N.pl3  23  ARG23       0.1354
     11  NH2       29.9710   20.9360   46.7240 N.pl3  23  ARG23       0.1354
     12  N         31.8480   12.8440   45.8820 N.3    27  ALA27      -0.1245
     13  CA        30.5910   12.6030   46.5790 C.3    27  ALA27       0.1562
     14  C         30.3800   11.0930   46.8090 C.2    27  ALA27       0.2260
     15  O         29.7830   10.6790   47.8080 O.2    27  ALA27      -0.2867
     16  CB        29.4350   13.1980   45.7870 C.3    27  ALA27       0.0290
     17  N         32.6760   10.1480   49.6080 N.3    30  VAL30      -0.1245
     18  CA        32.0750   10.6770   50.8310 C.3    30  VAL30       0.1561
     19  C         30.9280    9.7730   51.2660 C.2    30  VAL30       0.2260
     20  O         30.7580    9.5120   52.4540 O.2    30  VAL30      -0.2867
     21  CB        31.5590   12.1410   50.6320 C.3    30  VAL30       0.0252
     22  CG1       30.5960   12.5190   51.7220 C.3    30  VAL30       0.0019
     23  CG2       32.7270   13.1280   50.6320 C.3    30  VAL30       0.0019
     24  N         30.3610    7.5730   54.7330 N.3    34  LYS34      -0.1245
     25  CA        29.1860    7.7350   55.5720 C.3    34  LYS34       0.1561
     26  C         28.6160    6.3960   55.9750 C.2    34  LYS34       0.2260
     27  O         28.0160    6.2770   57.0410 O.2    34  LYS34      -0.2867
     28  CB        28.1210    8.5700   54.8730 C.3    34  LYS34       0.0271
     29  CG        28.5170   10.0240   54.7700 C.3    34  LYS34       0.0035
     30  CD        27.4610   10.8490   54.0890 C.3    34  LYS34       0.0206
     31  CE        27.8960   12.2930   54.0080 C.3    34  LYS34       0.1093
     32  NZ        27.1170   12.9750   52.9390 N.3    34  LYS34      -0.1314
     33  N         23.1410   10.5110   54.5130 N.3    41  VAL41      -0.1231
     34  CA        23.6470   11.2260   53.3510 C.3    41  VAL41       0.1692
     35  C         23.5970   12.7540   53.4510 C.2    41  VAL41       0.2592
     36  O         24.5910   13.4340   53.2630 O.2    41  VAL41      -0.2718
     37  CB        22.8980   10.7780   52.0870 C.3    41  VAL41       0.0266
     38  CG1       23.1910   11.7180   50.9180 C.3    41  VAL41       0.0020
     39  CG2       23.2920    9.3620   51.7550 C.3    41  VAL41       0.0020
     40  N         22.4180   13.2800   53.7200 N.am   42  ARG42      -0.1966
     41  CA        22.2120   14.7120   53.7830 C.3    42  ARG42       0.1729
     42  C         22.7380   15.3410   55.0580 C.2    42  ARG42       0.2616
     43  O         22.5700   14.8010   56.1450 O.2    42  ARG42      -0.2715
     44  CB        20.7220   14.9890   53.6510 C.3    42  ARG42       0.0348
     45  CG        20.3890   16.3730   53.2740 C.3    42  ARG42       0.0492
     46  CD        20.3640   16.4880   51.8030 C.3    42  ARG42       0.2205
     47  NE        20.4820   17.8800   51.4600 N.pl3  42  ARG42      -0.0865
     48  CZ        19.4870   18.6380   51.0290 C.cat  42  ARG42       0.5346
     49  NH1       18.2730   18.1360   50.8620 N.pl3  42  ARG42       0.1354
     50  NH2       19.7210   19.9050   50.7240 N.pl3  42  ARG42       0.1354
     51  N         23.3430   16.5120   54.9170 N.am   43  ASP43      -0.1971
     52  CA        23.8780   17.2590   56.0500 C.3    43  ASP43       0.1709
     53  C         23.6260   18.7300   55.7710 C.2    43  ASP43       0.2293
     54  O         24.4520   19.3980   55.1590 O.2    43  ASP43      -0.2864
     55  CB        25.3810   16.9980   56.2240 C.3    43  ASP43       0.1436
     56  CG        25.9880   17.8070   57.3630 C.2    43  ASP43       0.3671
     57  OD1       25.2810   18.6020   58.0110 O.co2  43  ASP43      -0.2456
     58  OD2       27.1940   17.6570   57.6130 O.co2  43  ASP43      -0.2456
     59  N         26.4480   21.4420   56.8670 N.3    46  ARG46      -0.1231
     60  CA        27.5620   21.5080   55.9390 C.3    46  ARG46       0.1694
     61  C         27.1990   22.3090   54.6730 C.2    46  ARG46       0.2591
     62  O         27.9600   23.1710   54.2400 O.2    46  ARG46      -0.2718
     63  CB        28.0220   20.0930   55.6160 C.3    46  ARG46       0.0321
     64  CG        28.9230   19.9650   54.4230 C.3    46  ARG46       0.0489
     65  CD        30.2570   20.6940   54.5430 C.3    46  ARG46       0.2205
     66  NE        30.9650   20.5660   53.2630 N.pl3  46  ARG46      -0.0865
     67  CZ        32.1310   21.1230   52.9580 C.cat  46  ARG46       0.5346
     68  NH1       32.7640   21.8800   53.8410 N.pl3  46  ARG46       0.1354
     69  NH2       32.6810   20.8910   51.7750 N.pl3  46  ARG46       0.1354
     70  N         26.0210   22.0680   54.1090 N.am   47  GLU47      -0.1979
     71  CA        25.5880   22.7970   52.9260 C.3    47  GLU47       0.1602
     72  C         25.4100   24.2760   53.2200 C.2    47  GLU47       0.2287
     73  O         25.6680   25.1030   52.3680 O.2    47  GLU47      -0.2864
     74  CB        24.2700   22.2490   52.4150 C.3    47  GLU47       0.0415
     75  CG        24.3650   20.8450   51.9240 C.3    47  GLU47       0.1163
     76  CD        23.0330   20.3010   51.5350 C.2    47  GLU47       0.3649
     77  OE1       22.1030   21.0890   51.2980 O.co2  47  GLU47      -0.2457
     78  OE2       22.9120   19.0750   51.4570 O.co2  47  GLU47      -0.2457
     79  N         29.0820   25.6960   53.4970 N.3    50  LEU50      -0.1245
     80  CA        29.6970   25.6340   52.1760 C.3    50  LEU50       0.1561
     81  C         29.1970   26.7770   51.2780 C.2    50  LEU50       0.2260
     82  O         29.9850   27.4750   50.6180 O.2    50  LEU50      -0.2867
     83  CB        29.3540   24.2510   51.5890 C.3    50  LEU50       0.0270
     84  CG        29.4460   23.6050   50.2100 C.3    50  LEU50       0.0019
     85  CD1       28.9730   22.1860   50.4010 C.3    50  LEU50       0.0001
     86  CD2       28.5650   24.2690   49.1770 C.3    50  LEU50       0.0001
     87  N         24.9130   20.4810   44.3880 N.3    76  ILE76      -0.1245
     88  CA        24.6930   19.7690   45.6480 C.3    76  ILE76       0.1561
     89  C         23.5740   18.7380   45.5040 C.2    76  ILE76       0.2260
     90  O         23.6690   17.6360   46.0380 O.2    76  ILE76      -0.2867
     91  CB        24.3190   20.7460   46.7630 C.3    76  ILE76       0.0252
     92  CG1       25.4970   21.6640   47.0590 C.3    76  ILE76       0.0019
     93  CG2       23.8880   19.9920   47.9960 C.3    76  ILE76       0.0019
     94  CD1       25.1590   22.7700   48.0230 C.3    76  ILE76       0.0001
     95  N         24.9660   15.7200   43.8060 N.3    79  SER79      -0.1202
     96  CA        25.8270   14.9070   44.6450 C.3    79  SER79       0.2020
     97  C         25.0360   14.2200   45.7510 C.2    79  SER79       0.2618
     98  O         25.4240   13.1450   46.2100 O.2    79  SER79      -0.2717
     99  CB        27.0090   15.7100   45.1920 C.3    79  SER79       0.2103
    100  OG        26.7230   16.2700   46.4440 O.3    79  SER79      -0.2182
    101  N         23.9280   14.8210   46.1810 N.am   80  VAL80      -0.1979
    102  CA        23.0960   14.1850   47.1910 C.3    80  VAL80       0.1595
    103  C         22.4340   12.9310   46.5940 C.2    80  VAL80       0.2287
    104  O         22.4940   11.8450   47.1810 O.2    80  VAL80      -0.2864
    105  CB        22.0370   15.1390   47.7350 C.3    80  VAL80       0.0276
    106  CG1       21.0130   14.3690   48.5220 C.3    80  VAL80       0.0022
    107  CG2       22.6840   16.1520   48.6320 C.3    80  VAL80       0.0022
    108  N         24.7850    9.9720   46.0420 N.3    83  GLN83      -0.1245
    109  CA        25.0420    9.2560   47.2670 C.3    83  GLN83       0.1566
    110  C         23.8370    8.4220   47.6500 C.2    83  GLN83       0.2260
    111  O         23.9840    7.3260   48.1920 O.2    83  GLN83      -0.2867
    112  CB        25.3420   10.2290   48.3770 C.3    83  GLN83       0.0367
    113  CG        26.7280   10.7600   48.3460 C.3    83  GLN83       0.0905
    114  CD        26.8930   11.8520   49.3510 C.2    83  GLN83       0.2608
    115  OE1       27.2310   11.6140   50.5000 O.2    83  GLN83      -0.2717
    116  NE2       26.6110   13.0660   48.9350 N.am   83  GLN83      -0.0878
@<TRIPOS>BOND
     1     1     2    1
     2     5     2    1
     3     5     6    1
     4     2     3    1
     5     3     4    2
     6     7     6    1
     7     7     8    1
     8    95    96    1
     9    87    88    1
    10    96    99    1
    11    96    97    1
    12     8     9    2
    13    99   100    1
    14    89    88    1
    15    89    90    2
    16    88    91    1
    17    10     9    1
    18     9    11    1
    19    97   101   am
    20    97    98    2
    21    16    13    1
    22    12    13    1
    23   108   109    1
    24   101   102    1
    25    13    14    1
    26   103   104    2
    27   103   102    1
    28    91    92    1
    29    91    93    1
    30    14    15    2
    31    92    94    1
    32   102   105    1
    33   109   110    1
    34   109   112    1
    35   110   111    2
    36   105   106    1
    37   105   107    1
    38   113   112    1
    39   113   114    1
    40   116   114   am
    41    86    84    1
    42   114   115    2
    43    17    18    1
    44    84    85    1
    45    84    83    1
    46    82    81    2
    47    21    23    1
    48    21    18    1
    49    21    22    1
    50    50    48    1
    51    18    19    1
    52    49    48    1
    53    38    37    1
    54    48    47    2
    55    19    20    2
    56    81    80    1
    57    77    76   ar
    58    78    76   ar
    59    47    46    1
    60    76    75    1
    61    83    80    1
    62    39    37    1
    63    69    67    1
    64    46    45    1
    65    75    74    1
    66    37    34    1
    67    80    79    1
    68    73    72    2
    69    74    71    1
    70    71    72    1
    71    71    70    1
    72    32    31    1
    73    67    66    2
    74    67    68    1
    75    66    65    1
    76    36    35    2
    77    45    44    1
    78    34    35    1
    79    34    33    1
    80    35    40   am
    81    44    41    1
    82    40    41    1
    83    41    42    1
    84    31    30    1
    85    30    29    1
    86    70    61   am
    87    62    61    2
    88    64    65    1
    89    64    63    1
    90    61    60    1
    91    24    25    1
    92    29    28    1
    93    28    25    1
    94    51    42   am
    95    51    52    1
    96    42    43    2
    97    54    53    2
    98    25    26    1
    99    63    60    1
   100    53    52    1
   101    60    59    1
   102    26    27    2
   103    52    55    1
   104    55    56    1
   105    56    58   ar
   106    56    57   ar
