@<TRIPOS>MOLECULE
tmp/1ecnA00.pdb
 197 192 0 0 0
SMALL
GASTEIGER

@<TRIPOS>ATOM
      1  N         10.4970   26.0930   21.3150 N.3    34  ILE34      -0.1245
      2  CA        10.5000   24.7110   21.8100 C.3    34  ILE34       0.1561
      3  C         11.8270   24.0910   21.3720 C.2    34  ILE34       0.2260
      4  O         12.5370   23.4780   22.1780 O.2    34  ILE34      -0.2867
      5  CB         9.3180   23.8930   21.2250 C.3    34  ILE34       0.0252
      6  CG1        7.9330   24.4030   21.7030 C.3    34  ILE34       0.0019
      7  CG2        9.6870   22.4660   21.6340 C.3    34  ILE34       0.0019
      8  CD1        6.7380   23.5930   21.1410 C.3    34  ILE34       0.0001
      9  N         15.1100   24.9480   23.3960 N.3    37  LYS37      -0.1231
     10  CA        15.3540   24.3160   24.7000 C.3    37  LYS37       0.1693
     11  C         16.1820   23.0350   24.6450 C.2    37  LYS37       0.2592
     12  O         16.5740   22.4870   25.6830 O.2    37  LYS37      -0.2718
     13  CB        14.0430   23.9550   25.3920 C.3    37  LYS37       0.0285
     14  CG        13.2230   25.1420   25.8540 C.3    37  LYS37       0.0035
     15  CD        12.5190   24.8350   27.1660 C.3    37  LYS37       0.0206
     16  CE        11.3150   25.7360   27.3750 C.3    37  LYS37       0.1093
     17  NZ        11.2440   26.2000   28.7760 N.3    37  LYS37      -0.1314
     18  N         16.4380   22.5760   23.4400 N.am   38  PHE38      -0.1962
     19  CA        17.2490   21.3680   23.2490 C.3    38  PHE38       0.1771
     20  C         18.6750   21.8150   22.9200 C.2    38  PHE38       0.2620
     21  O         18.9070   22.4940   21.9110 O.2    38  PHE38      -0.2715
     22  CB        16.6340   20.5230   22.1420 C.3    38  PHE38       0.0574
     23  CG        15.3120   19.8510   22.3670 C.ar   38  PHE38      -0.0200
     24  CD1       14.1850   20.6020   22.3930 C.ar   38  PHE38      -0.0042
     25  CD2       15.1960   18.4860   22.4670 C.ar   38  PHE38      -0.0042
     26  CE1       12.8970   20.0230   22.5880 C.ar   38  PHE38      -0.0003
     27  CE2       13.8900   17.9080   22.6200 C.ar   38  PHE38      -0.0003
     28  CZ        12.7890   18.6780   22.7110 C.ar   38  PHE38      -0.0000
     29  N         19.6080   21.4290   23.7790 N.am   39  THR39      -0.1951
     30  CA        21.0260   21.7480   23.5510 C.3    39  THR39       0.1897
     31  C         21.5050   21.1940   22.2120 C.2    39  THR39       0.2313
     32  O         22.3750   21.7790   21.5540 O.2    39  THR39      -0.2863
     33  CB        21.8200   21.1620   24.7310 C.3    39  THR39       0.1794
     34  OG1       21.7930   19.7580   24.5020 O.3    39  THR39      -0.2208
     35  CG2       21.2010   21.4880   26.0600 C.3    39  THR39       0.0378
     36  N         15.3670   11.4990   19.2690 N.3    58  HIS58      -0.1241
     37  CA        14.4450   12.3090   20.0840 C.3    58  HIS58       0.1621
     38  C         12.9800   12.1550   19.6820 C.2    58  HIS58       0.2264
     39  O         12.0880   12.0710   20.5390 O.2    58  HIS58      -0.2867
     40  CB        14.8480   13.7770   19.9700 C.3    58  HIS58       0.0745
     41  CG        15.9330   14.0760   20.9710 C.ar   58  HIS58       0.0817
     42  ND1       17.2690   14.1340   20.6150 N.ar   58  HIS58      -0.2268
     43  CD2       15.8860   14.3030   22.3090 C.ar   58  HIS58       0.1154
     44  CE1       17.9810   14.3820   21.6970 C.ar   58  HIS58       0.1986
     45  NE2       17.1650   14.5110   22.7180 N.ar   58  HIS58      -0.2212
     46  N         11.4600    9.0790   21.0340 N.3    61  ARG61      -0.1231
     47  CA        11.1630    9.1660   22.4710 C.3    61  ARG61       0.1694
     48  C          9.8550    9.8980   22.7690 C.2    61  ARG61       0.2591
     49  O          9.0360    9.4360   23.5780 O.2    61  ARG61      -0.2718
     50  CB        12.2850    9.8970   23.2330 C.3    61  ARG61       0.0321
     51  CG        13.5930    9.0970   23.3560 C.3    61  ARG61       0.0489
     52  CD        14.5810    9.8560   24.2120 C.3    61  ARG61       0.2205
     53  NE        15.8140    9.0790   24.4030 N.pl3  61  ARG61      -0.0865
     54  CZ        17.0410    9.6180   24.3270 C.cat  61  ARG61       0.5346
     55  NH1       17.2470   10.9030   24.6390 N.pl3  61  ARG61       0.1354
     56  NH2       18.0500    8.8570   23.9420 N.pl3  61  ARG61       0.1354
     57  N          9.6810   11.0270   22.1150 N.am   62  ILE62      -0.1980
     58  CA         8.5910   11.9510   22.4780 C.3    62  ILE62       0.1595
     59  C          7.2840   11.3660   21.9470 C.2    62  ILE62       0.2287
     60  O          6.2790   11.2840   22.6700 O.2    62  ILE62      -0.2864
     61  CB         8.8070   13.3500   21.8620 C.3    62  ILE62       0.0276
     62  CG1       10.0160   14.0960   22.4770 C.3    62  ILE62       0.0022
     63  CG2        7.4320   13.9910   22.0690 C.3    62  ILE62       0.0022
     64  CD1       10.7200   15.0550   21.4910 C.3    62  ILE62       0.0001
     65  N          6.1540    8.1730   23.7390 N.3    65  PHE65      -0.1227
     66  CA         5.4300    8.3950   24.9980 C.3    65  PHE65       0.1736
     67  C          4.0020    8.8720   24.7460 C.2    65  PHE65       0.2595
     68  O          3.0680    8.5030   25.4710 O.2    65  PHE65      -0.2718
     69  CB         6.1810    9.4060   25.8370 C.3    65  PHE65       0.0547
     70  CG         5.7450    9.4560   27.2690 C.ar   65  PHE65      -0.0202
     71  CD1        5.0380   10.5220   27.7030 C.ar   65  PHE65      -0.0042
     72  CD2        5.9670    8.4150   28.1320 C.ar   65  PHE65      -0.0042
     73  CE1        4.5830   10.6220   29.0490 C.ar   65  PHE65      -0.0003
     74  CE2        5.4660    8.5060   29.4760 C.ar   65  PHE65      -0.0003
     75  CZ         4.8240    9.6040   29.9100 C.ar   65  PHE65      -0.0000
     76  N          3.8550    9.6870   23.7210 N.am   66  PHE66      -0.1976
     77  CA         2.5260   10.1550   23.3170 C.3    66  PHE66       0.1639
     78  C          1.7130    8.9500   22.8460 C.2    66  PHE66       0.2290
     79  O          0.5140    8.8360   23.1370 O.2    66  PHE66      -0.2864
     80  CB         2.6690   11.1970   22.2270 C.3    66  PHE66       0.0560
     81  CG         1.4100   11.8930   21.7910 C.ar   66  PHE66      -0.0200
     82  CD1        0.8050   12.7530   22.6400 C.ar   66  PHE66      -0.0042
     83  CD2        0.8930   11.7420   20.5250 C.ar   66  PHE66      -0.0042
     84  CE1       -0.3810   13.4570   22.2840 C.ar   66  PHE66      -0.0003
     85  CE2       -0.2800   12.4890   20.1590 C.ar   66  PHE66      -0.0003
     86  CZ        -0.9020   13.2930   21.0420 C.ar   66  PHE66      -0.0000
     87  N          0.1890    7.0960   25.5260 N.3    69  ILE69      -0.1245
     88  CA        -0.8850    7.8200   26.2190 C.3    69  ILE69       0.1561
     89  C         -2.1420    7.5330   25.4010 C.2    69  ILE69       0.2260
     90  O         -3.2200    7.2790   25.9570 O.2    69  ILE69      -0.2867
     91  CB        -0.6070    9.3420   26.2700 C.3    69  ILE69       0.0252
     92  CG1        0.3410    9.7370   27.4280 C.3    69  ILE69       0.0019
     93  CG2       -2.0250    9.9140   26.3220 C.3    69  ILE69       0.0019
     94  CD1        0.7790   11.2150   27.3920 C.3    69  ILE69       0.0001
     95  N          5.0970   13.0730   33.0050 N.3    83  PHE83      -0.1241
     96  CA         5.4160   14.1840   32.1020 C.3    83  PHE83       0.1605
     97  C          5.6660   15.5140   32.8140 C.2    83  PHE83       0.2264
     98  O          6.6090   16.2420   32.4820 O.2    83  PHE83      -0.2867
     99  CB         4.2850   14.3580   31.1050 C.3    83  PHE83       0.0534
    100  CG         4.3760   15.6640   30.3750 C.ar   83  PHE83      -0.0203
    101  CD1        5.1890   15.7670   29.2960 C.ar   83  PHE83      -0.0042
    102  CD2        3.5950   16.7360   30.7130 C.ar   83  PHE83      -0.0042
    103  CE1        5.3100   16.9740   28.5550 C.ar   83  PHE83      -0.0003
    104  CE2        3.6900   17.9380   29.9330 C.ar   83  PHE83      -0.0003
    105  CZ         4.5570   18.0440   28.9080 C.ar   83  PHE83      -0.0000
    106  N          9.0640   15.5920   34.7090 N.3    86  SER86      -0.1202
    107  CA        10.2530   15.7870   33.8690 C.3    86  SER86       0.2020
    108  C         10.2950   17.1290   33.1400 C.2    86  SER86       0.2618
    109  O         11.3720   17.6410   32.8130 O.2    86  SER86      -0.2717
    110  CB        10.3380   14.6990   32.8180 C.3    86  SER86       0.2103
    111  OG         9.2190   14.7150   31.9380 O.3    86  SER86      -0.2182
    112  N          9.1230   17.6800   32.8980 N.am   87  HIS87      -0.1975
    113  CA         9.0180   18.9460   32.1630 C.3    87  HIS87       0.1656
    114  C          8.7960   20.2750   32.8900 C.2    87  HIS87       0.2291
    115  O          9.1820   21.3400   32.3940 O.2    87  HIS87      -0.2864
    116  CB         7.8700   18.8400   31.1570 C.3    87  HIS87       0.0771
    117  CG         8.3080   18.0470   29.9470 C.ar   87  HIS87       0.0820
    118  ND1        8.5610   16.6850   30.0040 N.ar   87  HIS87      -0.2267
    119  CD2        8.5640   18.4210   28.6660 C.ar   87  HIS87       0.1154
    120  CE1        8.9520   16.2770   28.8130 C.ar   87  HIS87       0.1986
    121  NE2        8.9360   17.3010   27.9920 N.ar   87  HIS87      -0.2212
    122  N         11.9560   22.0720   33.4900 N.3    90  ARG90      -0.1245
    123  CA        12.4980   22.7120   32.2870 C.3    90  ARG90       0.1563
    124  C         11.8160   24.0070   31.8440 C.2    90  ARG90       0.2260
    125  O         12.1520   24.5730   30.7940 O.2    90  ARG90      -0.2867
    126  CB        12.4260   21.7670   31.0650 C.3    90  ARG90       0.0307
    127  CG        12.9160   20.3340   31.3390 C.3    90  ARG90       0.0489
    128  CD        12.7920   19.4880   30.0810 C.3    90  ARG90       0.2205
    129  NE        13.7250   18.3530   30.1100 N.pl3  90  ARG90      -0.0865
    130  CZ        13.3340   17.0650   29.9610 C.cat  90  ARG90       0.5346
    131  NH1       12.0790   16.7610   29.5910 N.pl3  90  ARG90       0.1354
    132  NH2       14.2120   16.1060   30.1780 N.pl3  90  ARG90       0.1354
    133  N          8.7150   24.6810   30.7310 N.3    92  VAL92      -0.1245
    134  CA         7.7510   24.6680   29.6310 C.3    92  VAL92       0.1561
    135  C          6.5600   25.5390   30.0260 C.2    92  VAL92       0.2260
    136  O          6.0300   25.4240   31.1390 O.2    92  VAL92      -0.2867
    137  CB         7.3330   23.2230   29.3340 C.3    92  VAL92       0.0252
    138  CG1        6.2010   23.0700   28.2810 C.3    92  VAL92       0.0019
    139  CG2        8.5090   22.3340   29.0340 C.3    92  VAL92       0.0019
    140  N          3.8010   27.3200   24.9560 N.3    96  GLN96      -0.1231
    141  CA         4.5480   26.3100   24.2210 C.3    96  GLN96       0.1698
    142  C          3.7160   25.0380   24.0840 C.2    96  GLN96       0.2592
    143  O          3.7260   24.3820   23.0320 O.2    96  GLN96      -0.2718
    144  CB         5.8340   26.0510   24.9500 C.3    96  GLN96       0.0381
    145  CG         6.8660   27.0520   24.6730 C.3    96  GLN96       0.0905
    146  CD         8.1300   26.9300   25.5280 C.2    96  GLN96       0.2608
    147  OE1        9.2160   27.3710   25.0530 O.2    96  GLN96      -0.2717
    148  NE2        8.0380   26.3310   26.6500 N.am   96  GLN96      -0.0878
    149  N          3.0100   24.7080   25.1510 N.am   97  LEU97      -0.1980
    150  CA         2.1580   23.5140   25.1480 C.3    97  LEU97       0.1596
    151  C          1.0710   23.6510   24.0860 C.2    97  LEU97       0.2287
    152  O          0.7760   22.6960   23.3530 O.2    97  LEU97      -0.2864
    153  CB         1.5170   23.3090   26.5320 C.3    97  LEU97       0.0297
    154  CG         2.0070   22.1520   27.3740 C.3    97  LEU97       0.0022
    155  CD1        3.2650   21.5820   26.7620 C.3    97  LEU97       0.0001
    156  CD2        2.2770   22.6040   28.7830 C.3    97  LEU97       0.0001
    157  N          2.5400   23.2350   20.6420 N.3   100  PHE100     -0.1241
    158  CA         2.7210   21.7950   20.3910 C.3   100  PHE100      0.1605
    159  C          1.4230   21.1940   19.8580 C.2   100  PHE100      0.2264
    160  O          1.4280   20.4440   18.8740 O.2   100  PHE100     -0.2867
    161  CB         3.1380   21.1140   21.6810 C.3   100  PHE100      0.0534
    162  CG         3.4350   19.6470   21.5510 C.ar  100  PHE100     -0.0203
    163  CD1        2.4050   18.7670   21.4590 C.ar  100  PHE100     -0.0042
    164  CD2        4.7150   19.1730   21.4370 C.ar  100  PHE100     -0.0042
    165  CE1        2.6220   17.3670   21.3200 C.ar  100  PHE100     -0.0003
    166  CE2        4.9220   17.7650   21.2540 C.ar  100  PHE100     -0.0003
    167  CZ         3.8910   16.9000   21.2320 C.ar  100  PHE100     -0.0000
    168  N         -6.5270   15.7490   27.7320 N.3   128  PHE128     -0.1227
    169  CA        -5.0800   15.7110   28.0160 C.3   128  PHE128      0.1736
    170  C         -4.4530   17.0170   28.5100 C.2   128  PHE128      0.2595
    171  O         -3.8040   17.0550   29.5620 O.2   128  PHE128     -0.2718
    172  CB        -4.3380   15.2770   26.7670 C.3   128  PHE128      0.0547
    173  CG        -2.8520   15.0910   26.7330 C.ar  128  PHE128     -0.0202
    174  CD1       -2.2690   14.3090   27.6680 C.ar  128  PHE128     -0.0042
    175  CD2       -2.0790   15.6220   25.7340 C.ar  128  PHE128     -0.0042
    176  CE1       -0.8620   14.0820   27.6850 C.ar  128  PHE128     -0.0003
    177  CE2       -0.6660   15.3520   25.7340 C.ar  128  PHE128     -0.0003
    178  CZ        -0.0910   14.6270   26.7120 C.ar  128  PHE128     -0.0000
    179  N         -4.6550   18.0700   27.7420 N.am  129  PHE129     -0.1976
    180  CA        -4.0840   19.3830   28.0790 C.3   129  PHE129      0.1639
    181  C         -4.8220   19.9720   29.2840 C.2   129  PHE129      0.2290
    182  O         -4.2400   20.7120   30.0890 O.2   129  PHE129     -0.2864
    183  CB        -4.1760   20.2960   26.8720 C.3   129  PHE129      0.0560
    184  CG        -3.0560   19.9740   25.9250 C.ar  129  PHE129     -0.0200
    185  CD1       -3.3410   19.3880   24.7340 C.ar  129  PHE129     -0.0042
    186  CD2       -1.7610   20.3260   26.1920 C.ar  129  PHE129     -0.0042
    187  CE1       -2.3230   19.0740   23.7890 C.ar  129  PHE129     -0.0003
    188  CE2       -0.7470   20.0450   25.2140 C.ar  129  PHE129     -0.0003
    189  CZ        -1.0380   19.4060   24.0670 C.ar  129  PHE129     -0.0000
    190  N         -2.8750   18.4580   32.1480 N.3   132  ILE132     -0.1245
    191  CA        -1.5340   19.0610   32.2440 C.3   132  ILE132      0.1561
    192  C         -1.6160   20.4650   32.8470 C.2   132  ILE132      0.2260
    193  O         -0.8370   20.8210   33.7410 O.2   132  ILE132     -0.2867
    194  CB        -0.8640   19.1740   30.8520 C.3   132  ILE132      0.0252
    195  CG1       -0.5290   17.7910   30.2230 C.3   132  ILE132      0.0019
    196  CG2        0.3200   20.0870   31.1550 C.3   132  ILE132      0.0019
    197  CD1        0.0250   17.8770   28.7810 C.3   132  ILE132      0.0001
@<TRIPOS>BOND
     1   160   159    2
     2    36    37    1
     3    38    37    1
     4    38    39    2
     5   159   158    1
     6    40    37    1
     7    40    41    1
     8    85    83   ar
     9    85    86   ar
    10   158   157    1
    11   158   161    1
    12    83    81   ar
    13    42    41   ar
    14    42    44   ar
    15    41    43   ar
    16    46    47    1
    17    86    84   ar
    18     8     6    1
    19     5     7    1
    20     5     6    1
    21     5     2    1
    22   167   166   ar
    23   167   165   ar
    24   166   164   ar
    25     1     2    1
    26   165   163   ar
    27     3     2    1
    28     3     4    2
    29   164   162   ar
    30   163   162   ar
    31    64    62    1
    32   162   161    1
    33    32    31    2
    34    44    45   ar
    35    81    80    1
    36    81    82   ar
    37    61    63    1
    38    61    62    1
    39    61    58    1
    40    21    20    2
    41    59    58    1
    42    59    60    2
    43    57    58    1
    44    57    48   am
    45    22    23    1
    46    22    19    1
    47    31    30    1
    48    80    77    1
    49    84    82   ar
    50    43    45   ar
    51    23    24   ar
    52    23    25   ar
    53    24    26   ar
    54    25    27   ar
    55    47    48    1
    56    47    50    1
    57    26    28   ar
    58    27    28   ar
    59    48    49    2
    60    78    79    2
    61    78    77    1
    62    20    19    1
    63    20    29   am
    64   143   142    2
    65    50    51    1
    66    19    18    1
    67    77    76    1
    68   152   151    2
    69    51    52    1
    70     9    10    1
    71    18    11   am
    72    30    29    1
    73    30    33    1
    74    76    67   am
    75    65    66    1
    76   187   189   ar
    77   187   185   ar
    78    56    54    1
    79   189   188   ar
    80   142   141    1
    81   142   149   am
    82   151   150    1
    83    52    53    1
    84   141   144    1
    85   141   140    1
    86    54    53    2
    87    54    55    1
    88    34    33    1
    89    11    10    1
    90    11    12    2
    91   145   144    1
    92   145   146    1
    93    10    13    1
    94    33    35    1
    95   185   184   ar
    96    67    66    1
    97    67    68    2
    98    66    69    1
    99   147   146    2
   100   150   149    1
   101   150   153    1
   102   188   186   ar
   103    13    14    1
   104    89    90    2
   105    89    88    1
   106    87    88    1
   107   146   148   am
   108   177   175   ar
   109   177   178   ar
   110   175   173   ar
   111    69    70    1
   112    14    15    1
   113   184   186   ar
   114   184   183    1
   115    88    91    1
   116    91    93    1
   117    91    92    1
   118   153   154    1
   119   178   176   ar
   120   173   172    1
   121   173   174   ar
   122   155   154    1
   123   172   169    1
   124   183   180    1
   125    15    16    1
   126    70    71   ar
   127    70    72   ar
   128   154   156    1
   129    16    17    1
   130    94    92    1
   131   174   176   ar
   132    71    73   ar
   133   168   169    1
   134   179   180    1
   135   179   170   am
   136   121   119   ar
   137   121   120   ar
   138   169   170    1
   139   180   181    1
   140    72    74   ar
   141   138   137    1
   142   170   171    2
   143   103   105   ar
   144   103   101   ar
   145   119   117   ar
   146   197   195    1
   147   120   118   ar
   148   105   104   ar
   149   139   137    1
   150    73    75   ar
   151   181   182    2
   152   101   100   ar
   153   137   134    1
   154    74    75   ar
   155   131   130    1
   156   134   135    1
   157   134   133    1
   158   104   102   ar
   159   117   118   ar
   160   117   116    1
   161   130   129    2
   162   130   132    1
   163   135   136    2
   164   128   129    1
   165   128   127    1
   166   195   194    1
   167   100   102   ar
   168   100    99    1
   169   125   124    2
   170   194   196    1
   171   194   191    1
   172   126   127    1
   173   126   123    1
   174    99    96    1
   175   116   113    1
   176   124   123    1
   177   111   110    1
   178    96    97    1
   179    96    95    1
   180   190   191    1
   181   113   114    1
   182   113   112    1
   183   191   192    1
   184   123   122    1
   185   115   114    2
   186    98    97    2
   187   109   108    2
   188   110   107    1
   189   192   193    2
   190   112   108   am
   191   108   107    1
   192   107   106    1
