@<TRIPOS>MOLECULE
tmp/1ecxB00.pdb
 119 110 0 0 0
SMALL
GASTEIGER

@<TRIPOS>ATOM
      1  N          3.6740   84.6500   23.6490 N.3     8  ASN8       -0.1225
      2  CA         4.9960   85.1840   23.9690 C.3     8  ASN8        0.1785
      3  C          5.6170   85.6360   22.6550 C.2     8  ASN8        0.2597
      4  O          6.5960   86.3730   22.6340 O.2     8  ASN8       -0.2718
      5  CB         5.8910   84.1340   24.6370 C.3     8  ASN8        0.1169
      6  CG         5.6550   84.0290   26.1390 C.2     8  ASN8        0.2627
      7  OD1        6.4470   83.4240   26.8610 O.2     8  ASN8       -0.2716
      8  ND2        4.5640   84.6190   26.6140 N.am    8  ASN8       -0.0877
      9  N          5.0240   85.1830   21.5560 N.am    9  ALA9       -0.1979
     10  CA         5.4800   85.5320   20.2170 C.3     9  ALA9        0.1597
     11  C          4.8640   86.8790   19.8250 C.2     9  ALA9        0.2287
     12  O          5.5600   87.7860   19.3470 O.2     9  ALA9       -0.2864
     13  CB         5.0510   84.4610   19.2410 C.3     9  ALA9        0.0319
     14  N         10.1120   99.0260   17.6520 N.3    69  CYS69      -0.1221
     15  CA         9.9760   97.7130   18.2900 C.3    69  CYS69       0.1808
     16  C         11.0930   97.5210   19.3020 C.2    69  CYS69       0.2601
     17  O         12.0720   98.2700   19.2960 O.2    69  CYS69      -0.2717
     18  CB        10.0460   96.5900   17.2530 C.3    69  CYS69       0.0970
     19  SG        11.5280   96.6320   16.2110 S.3    69  CYS69      -0.0800
     20  N         10.9580   96.5180   20.1650 N.am   70  ALA70      -0.1965
     21  CA        11.9750   96.2550   21.1790 C.3    70  ALA70       0.1728
     22  C         13.3490   96.0130   20.5580 C.2    70  ALA70       0.2616
     23  O         14.3690   96.4290   21.1130 O.2    70  ALA70      -0.2715
     24  CB        11.5710   95.0600   22.0300 C.3    70  ALA70       0.0334
     25  N         13.3830   95.3500   19.4080 N.am   71  THR71      -0.1951
     26  CA        14.6550   95.0800   18.7600 C.3    71  THR71       0.1897
     27  C         15.3800   96.3800   18.4360 C.2    71  THR71       0.2313
     28  O         16.5680   96.5230   18.7340 O.2    71  THR71      -0.2863
     29  CB        14.4720   94.2380   17.4830 C.3    71  THR71       0.1794
     30  OG1       14.0050   92.9260   17.8340 O.3    71  THR71      -0.2208
     31  CG2       15.7860   94.1130   16.7380 C.3    71  THR71       0.0378
     32  N         16.7850   97.8500   21.5890 N.3    74  ILE74      -0.1245
     33  CA        17.9520   97.0960   22.0430 C.3    74  ILE74       0.1561
     34  C         19.1900   97.4140   21.1990 C.2    74  ILE74       0.2260
     35  O         20.2780   97.5790   21.7430 O.2    74  ILE74      -0.2867
     36  CB        17.6520   95.5750   22.0350 C.3    74  ILE74       0.0252
     37  CG1       16.6070   95.2540   23.1150 C.3    74  ILE74       0.0019
     38  CG2       18.9310   94.7800   22.2690 C.3    74  ILE74       0.0019
     39  CD1       15.9230   93.9070   22.9500 C.3    74  ILE74       0.0001
     40  N         17.5090   87.1220   24.0870 N.3    99  HIS99      -0.1241
     41  CA        16.8360   87.0480   22.7930 C.3    99  HIS99       0.1621
     42  C         17.8920   87.4280   21.7420 C.2    99  HIS99       0.2264
     43  O         18.8330   88.1710   22.0490 O.2    99  HIS99      -0.2867
     44  CB        15.6680   88.0430   22.7760 C.3    99  HIS99       0.0745
     45  CG        14.8690   88.0380   21.5060 C.ar   99  HIS99       0.0817
     46  ND1       13.7440   87.2580   21.3320 N.ar   99  HIS99      -0.2268
     47  CD2       15.0340   88.7210   20.3470 C.ar   99  HIS99       0.1154
     48  CE1       13.2540   87.4610   20.1220 C.ar   99  HIS99       0.1986
     49  NE2       14.0180   88.3440   19.5040 N.ar   99  HIS99      -0.2212
     50  N         18.1470   90.1740   30.8710 N.3   146  MET146     -0.1196
     51  CA        16.7050   90.1920   30.6020 C.3   146  MET146      0.1786
     52  C         15.8960   89.9450   31.8920 C.2   146  MET146      0.2306
     53  O         16.3690   89.2720   32.8040 O.2   146  MET146     -0.2863
     54  CB        16.3600   89.1420   29.5350 C.2   146  MET146      0.0070
     55  CG        16.3860   87.6940   30.0210 C.2   146  MET146      0.0282
     56  SD        16.3880   86.4210   28.7070 S.3   146  MET146     -0.1125
     57  CE        15.6190   87.2780   27.3180 C.3   146  MET146      0.0742
     58  N         12.9070   88.3340   32.1310 N.3   148  ALA148     -0.1245
     59  CA        12.3130   87.0000   32.0850 C.3   148  ALA148      0.1562
     60  C         12.6280   86.4100   30.7190 C.2   148  ALA148      0.2260
     61  O         12.7500   87.1440   29.7400 O.2   148  ALA148     -0.2867
     62  CB        10.8140   87.0740   32.2900 C.3   148  ALA148      0.0290
     63  N         11.8660   84.4410   27.2970 N.3   150  ASN150     -0.1240
     64  CA        10.7250   84.2300   26.4100 C.3   150  ASN150      0.1653
     65  C         10.4300   82.7730   26.0390 C.2   150  ASN150      0.2266
     66  O          9.2750   82.4060   25.8020 O.2   150  ASN150     -0.2867
     67  CB        10.9230   85.0470   25.1400 C.3   150  ASN150      0.1155
     68  CG        12.2730   84.7970   24.4960 C.2   150  ASN150      0.2627
     69  OD1       12.3590   84.4650   23.3130 O.2   150  ASN150     -0.2716
     70  ND2       13.3400   84.9640   25.2750 N.am  150  ASN150     -0.0877
     71  N         16.2790   93.9380   29.3110 N.3   177  ASP177     -0.1239
     72  CA        15.3160   93.5780   28.2710 C.3   177  ASP177      0.1674
     73  C         14.0940   93.0920   29.0430 C.2   177  ASP177      0.2266
     74  O         14.0440   91.9390   29.4800 O.2   177  ASP177     -0.2867
     75  CB        15.8720   92.4620   27.3740 C.3   177  ASP177      0.1410
     76  CG        14.8570   91.9620   26.3450 C.2   177  ASP177      0.3668
     77  OD1       15.2470   91.2280   25.4140 O.co2 177  ASP177     -0.2456
     78  OD2       13.6640   92.2910   26.4650 O.co2 177  ASP177     -0.2456
     79  N         10.9090   92.9920   27.8600 N.3   179  VAL179     -0.1231
     80  CA         9.8240   92.6610   26.9510 C.3   179  VAL179      0.1692
     81  C          8.7440   91.7090   27.4650 C.2   179  VAL179      0.2591
     82  O          7.5710   91.9050   27.1800 O.2   179  VAL179     -0.2718
     83  CB        10.3850   92.0830   25.6340 C.3   179  VAL179      0.0266
     84  CG1        9.2480   91.6140   24.7390 C.3   179  VAL179      0.0020
     85  CG2       11.2090   93.1380   24.9170 C.3   179  VAL179      0.0020
     86  N          9.1240   90.6820   28.2150 N.am  180  GLN180     -0.1979
     87  CA         8.1480   89.7000   28.6910 C.3   180  GLN180      0.1601
     88  C          7.5110   89.9510   30.0520 C.2   180  GLN180      0.2287
     89  O          6.8380   89.0710   30.5810 O.2   180  GLN180     -0.2864
     90  CB         8.7750   88.3010   28.7170 C.3   180  GLN180      0.0394
     91  CG         9.1770   87.7240   27.3710 C.3   180  GLN180      0.0908
     92  CD         7.9930   87.5030   26.4370 C.2   180  GLN180      0.2608
     93  OE1        6.8520   87.3120   26.8880 O.2   180  GLN180     -0.2717
     94  NE2        8.2610   87.5110   25.1240 N.am  180  GLN180     -0.0878
     95  N          8.2500   95.8680   24.1170 N.3   200  SER200     -0.1217
     96  CA         7.6040   95.7540   22.8080 C.3   200  SER200      0.1889
     97  C          6.0990   95.6840   23.0590 C.2   200  SER200      0.2288
     98  O          5.6060   94.7500   23.6800 O.2   200  SER200     -0.2866
     99  CB         8.0770   94.5210   22.0460 C.3   200  SER200      0.2089
    100  OG         8.6020   94.9160   20.7910 O.3   200  SER200     -0.2183
    101  N          3.4170   94.9570   21.2070 N.3   202  HIS202     -0.1226
    102  CA         2.6100   93.8340   20.7140 C.3   202  HIS202      0.1752
    103  C          2.6510   92.5590   21.5670 C.2   202  HIS202      0.2595
    104  O          1.9280   91.5990   21.2870 O.2   202  HIS202     -0.2718
    105  CB         2.9790   93.5050   19.2610 C.3   202  HIS202      0.0759
    106  CG         4.3060   92.8300   19.0980 C.ar  202  HIS202      0.0818
    107  ND1        4.4300   91.4730   18.8820 N.ar  202  HIS202     -0.2268
    108  CD2        5.5650   93.3300   19.0870 C.ar  202  HIS202      0.1154
    109  CE1        5.7080   91.1680   18.7390 C.ar  202  HIS202      0.1986
    110  NE2        6.4170   92.2770   18.8580 N.ar  202  HIS202     -0.2212
    111  N          3.4880   92.5560   22.6050 N.am  203  LYS203     -0.1980
    112  CA         3.6010   91.4200   23.5170 C.3   203  LYS203      0.1596
    113  C          2.5910   91.5090   24.6430 C.2   203  LYS203      0.2287
    114  O          2.4230   90.5550   25.3970 O.2   203  LYS203     -0.2864
    115  CB         4.9870   91.3430   24.1390 C.3   203  LYS203      0.0298
    116  CG         5.8360   90.2630   23.5590 C.3   203  LYS203      0.0038
    117  CD         6.1190   90.5390   22.1130 C.3   203  LYS203      0.0206
    118  CE         7.1390   89.5680   21.6150 C.3   203  LYS203      0.1093
    119  NZ         8.2000   89.5500   22.6280 N.3   203  LYS203     -0.1314
@<TRIPOS>BOND
     1    19    18    1
     2    31    29    1
     3    18    15    1
     4    29    30    1
     5    29    26    1
     6    14    15    1
     7    15    16    1
     8    27    28    2
     9    27    26    1
    10   109   110   ar
    11   109   107   ar
    12    26    25    1
    13   110   108   ar
    14   107   106   ar
    15   108   106   ar
    16   106   105    1
    17    13    10    1
    18   105   102    1
    19    17    16    2
    20    16    20   am
    21    12    11    2
    22    25    22   am
    23    49    48   ar
    24    49    47   ar
    25    11    10    1
    26    48    46   ar
    27    20    21    1
    28    10     9    1
    29    47    45   ar
    30    22    23    2
    31    22    21    1
    32   102   101    1
    33   102   103    1
    34   100    99    1
    35    21    24    1
    36    34    35    2
    37    34    33    1
    38   104   103    2
    39    46    45   ar
    40    45    44    1
    41     9     3   am
    42   103   111   am
    43    32    33    1
    44   118   117    1
    45   118   119    1
    46    42    43    2
    47    42    41    1
    48    36    33    1
    49    36    38    1
    50    36    37    1
    51    99    96    1
    52   117   116    1
    53   111   112    1
    54     4     3    2
    55     3     2    1
    56    44    41    1
    57    41    40    1
    58    96    97    1
    59    96    95    1
    60    39    37    1
    61    97    98    2
    62    69    68    2
    63   112   115    1
    64   112   113    1
    65   116   115    1
    66     1     2    1
    67     2     5    1
    68    68    67    1
    69    68    70   am
    70     5     6    1
    71   113   114    2
    72    84    83    1
    73    85    83    1
    74    94    92   am
    75    67    64    1
    76    77    76   ar
    77    83    80    1
    78    66    65    2
    79    65    64    1
    80     6     8   am
    81     6     7    2
    82    76    78   ar
    83    76    75    1
    84    64    63    1
    85    92    93    2
    86    92    91    1
    87    80    81    1
    88    80    79    1
    89    82    81    2
    90    57    56    1
    91    91    90    1
    92    75    72    1
    93    81    86   am
    94    86    87    1
    95    72    73    1
    96    72    71    1
    97    87    90    1
    98    87    88    1
    99    56    55    1
   100    73    74    2
   101    54    55    2
   102    54    51    1
   103    61    60    2
   104    88    89    2
   105    51    50    1
   106    51    52    1
   107    60    59    1
   108    52    53    2
   109    59    58    1
   110    59    62    1
