@<TRIPOS>MOLECULE
tmp/1ed4A01.pdb
 84 84 0 0 0
SMALL
GASTEIGER

@<TRIPOS>ATOM
      1  N          8.8000    5.2560   36.9580 N.3   120  CYS120     -0.1235
      2  CA         7.7490    5.5390   35.9870 C.3   120  CYS120      0.1677
      3  C          6.4140    4.8600   36.2980 C.2   120  CYS120      0.2270
      4  O          6.3150    3.6310   36.3220 O.2   120  CYS120     -0.2867
      5  CB         8.2190    5.1340   34.5840 C.3   120  CYS120      0.0956
      6  SG         6.9920    5.5400   33.3240 S.3   120  CYS120     -0.0801
      7  N          6.0230   15.8300   26.9370 N.3   270  PRO270     -0.2116
      8  CA         7.0800   15.6740   27.9350 C.3   270  PRO270      0.1372
      9  C          8.1290   14.7830   27.2670 C.2   270  PRO270      0.2244
     10  O          7.8630   13.6210   26.9500 O.2   270  PRO270     -0.2868
     11  CB         6.3560   14.9920   29.0980 C.3   270  PRO270      0.0268
     12  CG         5.3650   14.1210   28.4010 C.3   270  PRO270      0.0207
     13  CD         4.8520   14.9940   27.2670 C.3   270  PRO270      0.0892
     14  N         12.1230   13.7880   27.8260 N.3   272  VAL272     -0.1245
     15  CA        13.3870   13.8140   28.5470 C.3   272  VAL272      0.1561
     16  C         14.5240   13.5980   27.5590 C.2   272  VAL272      0.2260
     17  O         14.5540   12.5960   26.8370 O.2   272  VAL272     -0.2867
     18  CB        13.4280   12.7120   29.6200 C.3   272  VAL272      0.0252
     19  CG1       14.7970   12.6780   30.2830 C.3   272  VAL272      0.0019
     20  CG2       12.3400   12.9730   30.6580 C.3   272  VAL272      0.0019
     21  N         13.4460   10.5270   24.8090 N.3   289  PHE289     -0.1227
     22  CA        12.2220    9.7320   24.8040 C.3   289  PHE289      0.1736
     23  C         11.0460   10.5650   25.3140 C.2   289  PHE289      0.2596
     24  O         11.2260   11.4660   26.1320 O.2   289  PHE289     -0.2718
     25  CB        12.4100    8.4590   25.6450 C.3   289  PHE289      0.0547
     26  CG        12.9090    8.7110   27.0440 C.ar  289  PHE289     -0.0202
     27  CD1       12.0170    8.9410   28.0850 C.ar  289  PHE289     -0.0042
     28  CD2       14.2720    8.7050   27.3220 C.ar  289  PHE289     -0.0042
     29  CE1       12.4730    9.1570   29.3840 C.ar  289  PHE289     -0.0003
     30  CE2       14.7400    8.9210   28.6210 C.ar  289  PHE289     -0.0003
     31  CZ        13.8370    9.1460   29.6520 C.ar  289  PHE289     -0.0000
     32  N          9.8490   10.2700   24.8170 N.am  290  SER290     -0.1938
     33  CA         8.6650   11.0200   25.2160 C.3   290  SER290      0.2055
     34  C          7.4140   10.1610   25.3320 C.2   290  SER290      0.2644
     35  O          7.2930    9.1160   24.6830 O.2   290  SER290     -0.2714
     36  CB         8.4040   12.1480   24.2130 C.3   290  SER290      0.2130
     37  OG         8.1560   11.6300   22.9130 O.3   290  SER290     -0.2179
     38  N          6.4920   10.6130   26.1780 N.am  291  GLY291     -0.1939
     39  CA         5.2290    9.9240   26.3710 C.3   291  GLY291      0.2014
     40  C          4.1910   11.0290   26.4220 C.2   291  GLY291      0.2639
     41  O          4.1390   11.8620   25.5200 O.2   291  GLY291     -0.2714
     42  N          3.3570   11.0270   27.4560 N.am  292  TRP292     -0.1959
     43  CA         2.3740   12.0810   27.6570 C.3   292  TRP292      0.1771
     44  C          2.3290   12.3490   29.1580 C.2   292  TRP292      0.2620
     45  O          2.7800   11.5350   29.9580 O.2   292  TRP292     -0.2715
     46  CB         0.9940   11.7120   27.0880 C.3   292  TRP292      0.0590
     47  CG         0.4040   10.4280   27.5690 C.ar  292  TRP292      0.0006
     48  CD1       -0.2000   10.1960   28.7730 C.ar  292  TRP292      0.0946
     49  CD2        0.3370    9.1990   26.8410 C.ar  292  TRP292      0.0152
     50  NE1       -0.6440    8.8980   28.8350 N.ar  292  TRP292     -0.2442
     51  CE2       -0.3270    8.2620   27.6620 C.ar  292  TRP292      0.0810
     52  CE3        0.7750    8.7990   25.5700 C.ar  292  TRP292      0.0012
     53  CZ2       -0.5650    6.9430   27.2540 C.ar  292  TRP292      0.0191
     54  CZ3        0.5370    7.4820   25.1630 C.ar  292  TRP292      0.0001
     55  CH2       -0.1280    6.5740   26.0070 C.ar  292  TRP292      0.0015
     56  N          1.8080   13.5070   29.5290 N.am  293  TYR293     -0.1960
     57  CA         1.7570   13.9190   30.9250 C.3   293  TYR293      0.1771
     58  C          0.6780   13.3280   31.8130 C.2   293  TYR293      0.2619
     59  O         -0.4110   12.9820   31.3560 O.2   293  TYR293     -0.2715
     60  CB         1.6100   15.4460   30.9980 C.3   293  TYR293      0.0574
     61  CG         2.9020   16.2380   30.9690 C.ar  293  TYR293     -0.0198
     62  CD1        3.8160   16.1480   32.0150 C.ar  293  TYR293     -0.0009
     63  CD2        3.1730   17.1320   29.9300 C.ar  293  TYR293     -0.0009
     64  CE1        4.9690   16.9310   32.0420 C.ar  293  TYR293      0.0417
     65  CE2        4.3230   17.9290   29.9360 C.ar  293  TYR293      0.0417
     66  CZ         5.2080   17.8210   30.9970 C.ar  293  TYR293      0.1957
     67  OH         6.3320   18.6180   31.0370 O.3   293  TYR293     -0.2866
     68  N          1.0140   13.2040   33.0940 N.am  294  MET294     -0.1977
     69  CA         0.0500   12.8150   34.1080 C.3   294  MET294      0.1605
     70  C         -0.1690   14.2430   34.6320 C.2   294  MET294      0.2287
     71  O          0.8010   14.9780   34.8450 O.2   294  MET294     -0.2864
     72  CB         0.6670   11.9310   35.1950 C.3   294  MET294      0.0413
     73  CG        -0.2920   11.6970   36.3660 C.3   294  MET294      0.0598
     74  SD         0.1140   10.2610   37.3710 S.3   294  MET294     -0.1393
     75  CE         1.3650   10.9760   38.4850 C.3   294  MET294      0.0692
     76  N          1.9370   16.3410   37.3190 N.3   297  GLU297     -0.1245
     77  CA         3.2750   16.8000   36.9590 C.3   297  GLU297      0.1567
     78  C          3.2270   18.2980   36.6560 C.2   297  GLU297      0.2260
     79  O          4.1080   19.0590   37.0630 O.2   297  GLU297     -0.2867
     80  CB         3.7800   16.0560   35.7230 C.3   297  GLU297      0.0388
     81  CG         4.0730   14.5790   35.9430 C.3   297  GLU297      0.1160
     82  CD         4.6070   13.9200   34.6830 C.2   297  GLU297      0.3649
     83  OE1        3.8110   13.2960   33.9490 O.co2 297  GLU297     -0.2457
     84  OE2        5.8230   14.0480   34.4240 O.co2 297  GLU297     -0.2457
@<TRIPOS>BOND
     1    37    36    1
     2    36    33    1
     3    35    34    2
     4    22    21    1
     5    22    23    1
     6    22    25    1
     7    32    33    1
     8    32    23   am
     9    54    52   ar
    10    54    55   ar
    11    33    34    1
    12    23    24    2
    13    34    38   am
    14    41    40    2
    15    52    49   ar
    16    25    26    1
    17    55    53   ar
    18    38    39    1
    19    39    40    1
    20    40    42   am
    21    17    16    2
    22    49    47   ar
    23    49    51   ar
    24     7    13    1
    25     7     8    1
    26    10     9    2
    27    26    28   ar
    28    26    27   ar
    29    46    47    1
    30    46    43    1
    31    53    51   ar
    32    13    12    1
    33     9     8    1
    34    28    30   ar
    35    42    43    1
    36    16    15    1
    37    47    48   ar
    38    43    44    1
    39    51    50   ar
    40    14    15    1
    41     8    11    1
    42    27    29   ar
    43    12    11    1
    44    15    18    1
    45    30    31   ar
    46    48    50   ar
    47    44    56   am
    48    44    45    2
    49    29    31   ar
    50    56    57    1
    51    18    19    1
    52    18    20    1
    53    63    65   ar
    54    63    61   ar
    55    65    66   ar
    56    57    60    1
    57    57    58    1
    58    61    60    1
    59    61    62   ar
    60    66    67    1
    61    66    64   ar
    62    59    58    2
    63    58    68   am
    64    62    64   ar
    65    68    69    1
    66     6     5    1
    67    83    82   ar
    68    69    70    1
    69    69    72    1
    70    84    82   ar
    71     5     2    1
    72    70    71    2
    73    82    81    1
    74    72    73    1
    75    80    81    1
    76    80    77    1
    77     2     3    1
    78     2     1    1
    79     3     4    2
    80    73    74    1
    81    78    77    1
    82    78    79    2
    83    77    76    1
    84    74    75    1
