@<TRIPOS>MOLECULE
tmp/1ed6A01.pdb
 146 142 0 0 0
SMALL
GASTEIGER

@<TRIPOS>ATOM
      1  N          8.6370    5.1750   36.5980 N.3   120  CYS120     -0.1235
      2  CA         7.5330    5.4210   35.6740 C.3   120  CYS120      0.1677
      3  C          6.2660    4.6470   36.0670 C.2   120  CYS120      0.2270
      4  O          6.2860    3.4220   36.1600 O.2   120  CYS120     -0.2867
      5  CB         7.9390    5.0300   34.2480 C.3   120  CYS120      0.0956
      6  SG         6.6480    5.4120   33.0490 S.3   120  CYS120     -0.0801
      7  N         14.4180   18.6070   28.2880 N.3   183  GLN183     -0.1245
      8  CA        13.2160   18.1550   27.5930 C.3   183  GLN183      0.1566
      9  C         13.1690   18.8670   26.2420 C.2   183  GLN183      0.2260
     10  O         13.6020   20.0160   26.1260 O.2   183  GLN183     -0.2867
     11  CB        11.9480   18.4890   28.3970 C.3   183  GLN183      0.0367
     12  CG        11.6760   17.5900   29.5990 C.3   183  GLN183      0.0905
     13  CD        10.3290   17.8710   30.2460 C.2   183  GLN183      0.2608
     14  OE1        9.3830   18.2850   29.5760 O.2   183  GLN183     -0.2717
     15  NE2       10.2320   17.6310   31.5510 N.am  183  GLN183     -0.0878
     16  N         10.6190   22.9280   26.8530 N.3   186  ARG186     -0.1245
     17  CA        10.7440   23.5410   28.1720 C.3   186  ARG186      0.1563
     18  C         10.4350   25.0290   28.0970 C.2   186  ARG186      0.2260
     19  O         10.5590   25.6460   27.0400 O.2   186  ARG186     -0.2867
     20  CB        12.1650   23.3750   28.7070 C.3   186  ARG186      0.0307
     21  CG        12.5520   21.9510   28.9050 C.3   186  ARG186      0.0489
     22  CD        11.6640   21.3290   29.9590 C.3   186  ARG186      0.2205
     23  NE        12.3210   21.2900   31.2550 N.pl3 186  ARG186     -0.0865
     24  CZ        11.6920   21.0290   32.3940 C.cat 186  ARG186      0.5346
     25  NH1       10.3820   20.7990   32.3820 N.pl3 186  ARG186      0.1354
     26  NH2       12.3730   20.9770   33.5340 N.pl3 186  ARG186      0.1354
     27  N          2.5430   22.7630   27.6900 N.3   267  TYR267     -0.1241
     28  CA         2.6900   22.0440   26.4380 C.3   267  TYR267      0.1605
     29  C          2.1810   20.6240   26.6260 C.2   267  TYR267      0.2264
     30  O          2.2210   20.0800   27.7290 O.2   267  TYR267     -0.2867
     31  CB         4.1580   22.0570   26.0210 C.3   267  TYR267      0.0534
     32  CG         5.1140   21.6360   27.1130 C.ar  267  TYR267     -0.0201
     33  CD1        5.5230   20.3100   27.2310 C.ar  267  TYR267     -0.0009
     34  CD2        5.6290   22.5660   28.0150 C.ar  267  TYR267     -0.0009
     35  CE1        6.4320   19.9180   28.2180 C.ar  267  TYR267      0.0417
     36  CE2        6.5340   22.1830   29.0050 C.ar  267  TYR267      0.0417
     37  CZ         6.9320   20.8580   29.0960 C.ar  267  TYR267      0.1957
     38  OH         7.8520   20.4760   30.0390 O.3   267  TYR267     -0.2866
     39  N          5.2500   15.6060   26.8530 N.3   270  PRO270     -0.2116
     40  CA         6.3040   15.4940   27.8650 C.3   270  PRO270      0.1372
     41  C          7.4250   14.6720   27.2210 C.2   270  PRO270      0.2244
     42  O          7.2450   13.4810   26.9590 O.2   270  PRO270     -0.2868
     43  CB         5.6030   14.7610   29.0090 C.3   270  PRO270      0.0268
     44  CG         4.6810   13.8320   28.2850 C.3   270  PRO270      0.0207
     45  CD         4.1340   14.6890   27.1480 C.3   270  PRO270      0.0892
     46  N         11.3690   13.7830   27.8870 N.3   272  VAL272     -0.1245
     47  CA        12.6800   13.7770   28.5470 C.3   272  VAL272      0.1561
     48  C         13.7540   13.6040   27.4830 C.2   272  VAL272      0.2260
     49  O         13.6880   12.6730   26.6810 O.2   272  VAL272     -0.2867
     50  CB        12.8230   12.6050   29.5500 C.3   272  VAL272      0.0252
     51  CG1       14.2120   12.6100   30.1770 C.3   272  VAL272      0.0019
     52  CG2       11.7770   12.7100   30.6210 C.3   272  VAL272      0.0019
     53  N         12.7820   10.5370   24.7130 N.3   289  PHE289     -0.1227
     54  CA        11.5410    9.7600   24.6410 C.3   289  PHE289      0.1736
     55  C         10.3820   10.6100   25.1280 C.2   289  PHE289      0.2596
     56  O         10.5800   11.6120   25.8170 O.2   289  PHE289     -0.2718
     57  CB        11.6510    8.4910   25.5030 C.3   289  PHE289      0.0547
     58  CG        11.8790    8.7650   26.9700 C.ar  289  PHE289     -0.0202
     59  CD1       10.8280    9.1540   27.7950 C.ar  289  PHE289     -0.0042
     60  CD2       13.1480    8.6450   27.5230 C.ar  289  PHE289     -0.0042
     61  CE1       11.0400    9.4160   29.1510 C.ar  289  PHE289     -0.0003
     62  CE2       13.3650    8.9060   28.8730 C.ar  289  PHE289     -0.0003
     63  CZ        12.3060    9.2900   29.6870 C.ar  289  PHE289     -0.0000
     64  N          9.1710   10.2080   24.7690 N.am  290  SER290     -0.1938
     65  CA         7.9790   10.9370   25.1720 C.3   290  SER290      0.2055
     66  C          6.7880    9.9860   25.2680 C.2   290  SER290      0.2644
     67  O          6.7850    8.9080   24.6760 O.2   290  SER290     -0.2714
     68  CB         7.6600   12.0410   24.1560 C.3   290  SER290      0.2130
     69  OG         7.3620   11.5010   22.8770 O.3   290  SER290     -0.2179
     70  N          5.7830   10.4040   26.0300 N.am  291  GLY291     -0.1939
     71  CA         4.5660    9.6310   26.1890 C.3   291  GLY291      0.2014
     72  C          3.4800   10.6760   26.2940 C.2   291  GLY291      0.2639
     73  O          3.2950   11.4810   25.3780 O.2   291  GLY291     -0.2714
     74  N          2.7570   10.6650   27.4040 N.am  292  TRP292     -0.1959
     75  CA         1.7200   11.6460   27.6500 C.3   292  TRP292      0.1771
     76  C          1.6580   11.8810   29.1460 C.2   292  TRP292      0.2620
     77  O          2.0170   11.0170   29.9460 O.2   292  TRP292     -0.2715
     78  CB         0.3650   11.2090   27.0700 C.3   292  TRP292      0.0590
     79  CG        -0.1770    9.8980   27.5490 C.ar  292  TRP292      0.0006
     80  CD1       -0.7850    9.6460   28.7450 C.ar  292  TRP292      0.0946
     81  CD2       -0.2180    8.6720   26.8100 C.ar  292  TRP292      0.0152
     82  NE1       -1.2100    8.3400   28.7940 N.ar  292  TRP292     -0.2442
     83  CE2       -0.8750    7.7190   27.6190 C.ar  292  TRP292      0.0810
     84  CE3        0.2310    8.2900   25.5340 C.ar  292  TRP292      0.0012
     85  CZ2       -1.0940    6.3940   27.1990 C.ar  292  TRP292      0.0191
     86  CZ3        0.0120    6.9690   25.1140 C.ar  292  TRP292      0.0001
     87  CH2       -0.6470    6.0420   25.9480 C.ar  292  TRP292      0.0015
     88  N          1.2230   13.0780   29.5080 N.am  293  TYR293     -0.1960
     89  CA         1.1490   13.5030   30.8920 C.3   293  TYR293      0.1771
     90  C          0.1260   12.8320   31.8000 C.2   293  TYR293      0.2619
     91  O         -0.9200   12.3540   31.3640 O.2   293  TYR293     -0.2715
     92  CB         0.8970   15.0150   30.9350 C.3   293  TYR293      0.0574
     93  CG         2.1320   15.8810   30.8960 C.ar  293  TYR293     -0.0198
     94  CD1        3.0340   15.8900   31.9640 C.ar  293  TYR293     -0.0009
     95  CD2        2.3840   16.7220   29.8110 C.ar  293  TYR293     -0.0009
     96  CE1        4.1500   16.7140   31.9550 C.ar  293  TYR293      0.0417
     97  CE2        3.5090   17.5550   29.7880 C.ar  293  TYR293      0.0417
     98  CZ         4.3840   17.5450   30.8640 C.ar  293  TYR293      0.1957
     99  OH         5.4890   18.3580   30.8670 O.3   293  TYR293     -0.2866
    100  N          0.4740   12.7870   33.0800 N.am  294  MET294     -0.1977
    101  CA        -0.4280   12.3110   34.1070 C.3   294  MET294      0.1605
    102  C         -0.6920   13.6590   34.7640 C.2   294  MET294      0.2287
    103  O          0.2340   14.3110   35.2410 O.2   294  MET294     -0.2864
    104  CB         0.2460   11.3770   35.1030 C.3   294  MET294      0.0413
    105  CG        -0.6070   11.1640   36.3490 C.3   294  MET294      0.0598
    106  SD         0.0930    9.9320   37.4370 S.3   294  MET294     -0.1393
    107  CE         1.2380   10.9320   38.4050 C.3   294  MET294      0.0692
    108  N          1.4430   15.7640   37.2530 N.3   297  GLU297     -0.1245
    109  CA         2.7700   16.2630   36.8910 C.3   297  GLU297      0.1567
    110  C          2.6880   17.7560   36.5950 C.2   297  GLU297      0.2260
    111  O          3.5610   18.5410   36.9870 O.2   297  GLU297     -0.2867
    112  CB         3.3100   15.5580   35.6440 C.3   297  GLU297      0.0388
    113  CG         3.6900   14.1020   35.8410 C.3   297  GLU297      0.1160
    114  CD         4.1980   13.4670   34.5600 C.2   297  GLU297      0.3649
    115  OE1        3.3670   12.9690   33.7690 O.co2 297  GLU297     -0.2457
    116  OE2        5.4310   13.4850   34.3460 O.co2 297  GLU297     -0.2457
    117  N          3.0050   19.3260   40.5010 N.3   301  ARG301     -0.1231
    118  CA         4.4420   19.5580   40.5640 C.3   301  ARG301      0.1694
    119  C          4.9170   20.7910   39.8220 C.2   301  ARG301      0.2592
    120  O          5.5880   21.6490   40.3910 O.2   301  ARG301     -0.2718
    121  CB         5.1940   18.3230   40.0520 C.3   301  ARG301      0.0321
    122  CG         4.9020   17.0520   40.8390 C.3   301  ARG301      0.0489
    123  CD         5.1730   17.2280   42.3410 C.3   301  ARG301      0.2205
    124  NE         6.5250   17.7300   42.5970 N.pl3 301  ARG301     -0.0865
    125  CZ         7.6270   16.9940   42.5080 C.cat 301  ARG301      0.5346
    126  NH1        7.5440   15.7110   42.1740 N.pl3 301  ARG301      0.1354
    127  NH2        8.8140   17.5380   42.7450 N.pl3 301  ARG301      0.1354
    128  N          4.5510   20.8870   38.5520 N.am  302  ASN302     -0.1974
    129  CA         4.9830   22.0050   37.7360 C.3   302  ASN302      0.1688
    130  C          4.3990   23.3410   38.1550 C.2   302  ASN302      0.2292
    131  O          5.1210   24.3280   38.2840 O.2   302  ASN302     -0.2864
    132  CB         4.6640   21.7180   36.2690 C.3   302  ASN302      0.1181
    133  CG         5.3780   20.4820   35.7640 C.2   302  ASN302      0.2629
    134  OD1        6.2940   19.9810   36.4190 O.2   302  ASN302     -0.2716
    135  ND2        4.9750   19.9880   34.5960 N.am  302  ASN302     -0.0877
    136  N          8.9820   26.0110   41.5890 N.3   308  ARG308     -0.1245
    137  CA         8.5510   26.0360   40.1910 C.3   308  ARG308      0.1563
    138  C          7.6600   27.2680   40.0530 C.2   308  ARG308      0.2260
    139  O          7.9540   28.3030   40.6470 O.2   308  ARG308     -0.2867
    140  CB         7.7830   24.7580   39.8110 C.3   308  ARG308      0.0307
    141  CG         8.5910   23.4560   39.9330 C.3   308  ARG308      0.0489
    142  CD         9.8500   23.4390   39.0660 C.3   308  ARG308      0.2205
    143  NE         9.5590   23.3900   37.6360 N.pl3 308  ARG308     -0.0865
    144  CZ         9.1030   22.3160   37.0000 C.cat 308  ARG308      0.5346
    145  NH1        8.8830   21.1880   37.6690 N.pl3 308  ARG308      0.1354
    146  NH2        8.8750   22.3630   35.6920 N.pl3 308  ARG308      0.1354
@<TRIPOS>BOND
     1    69    68    1
     2    68    65    1
     3    54    53    1
     4    54    55    1
     5    54    57    1
     6    67    66    2
     7    64    55   am
     8    64    65    1
     9    86    84   ar
    10    86    87   ar
    11    55    56    2
    12    65    66    1
    13    66    70   am
    14    73    72    2
    15    57    58    1
    16    84    81   ar
    17    87    85   ar
    18    31    28    1
    19    31    32    1
    20    70    71    1
    21    10     9    2
    22    71    72    1
    23     9     8    1
    24    72    74   am
    25    28    29    1
    26    28    27    1
    27    29    30    2
    28    49    48    2
    29    81    79   ar
    30    81    83   ar
    31    16    17    1
    32    39    45    1
    33    39    40    1
    34    42    41    2
    35    58    60   ar
    36    58    59   ar
    37    19    18    2
    38    78    79    1
    39    78    75    1
    40    32    33   ar
    41    32    34   ar
    42    45    44    1
    43    85    83   ar
    44    41    40    1
    45    33    35   ar
    46    74    75    1
    47    48    47    1
    48    60    62   ar
    49    79    80   ar
    50     8     7    1
    51     8    11    1
    52    83    82   ar
    53    75    76    1
    54    59    61   ar
    55    40    43    1
    56    46    47    1
    57    34    36   ar
    58    18    17    1
    59    17    20    1
    60    35    37   ar
    61    44    43    1
    62    11    12    1
    63    47    50    1
    64    20    21    1
    65    80    82   ar
    66    62    63   ar
    67    21    22    1
    68    36    37   ar
    69    37    38    1
    70    76    88   am
    71    76    77    2
    72    61    63   ar
    73    88    89    1
    74    50    51    1
    75    50    52    1
    76    14    13    2
    77    12    13    1
    78    97    95   ar
    79    97    98   ar
    80    95    93   ar
    81    22    23    1
    82    13    15   am
    83    98    99    1
    84    98    96   ar
    85    89    92    1
    86    89    90    1
    87    93    92    1
    88    93    94   ar
    89    23    24    2
    90    91    90    2
    91    90   100   am
    92    96    94   ar
    93    25    24    1
    94    24    26    1
    95     6     5    1
    96   100   101    1
    97   115   114   ar
    98   101   102    1
    99   101   104    1
   100     5     2    1
   101   116   114   ar
   102   114   113    1
   103   135   133   am
   104   102   103    2
   105   104   105    1
   106   112   113    1
   107   112   109    1
   108     2     3    1
   109     2     1    1
   110   146   144    1
   111   133   132    1
   112   133   134    2
   113     3     4    2
   114   132   129    1
   115   105   106    1
   116   110   109    1
   117   110   111    2
   118   109   108    1
   119   144   143    2
   120   144   145    1
   121   106   107    1
   122   143   142    1
   123   129   130    1
   124   129   128    1
   125   130   131    2
   126   128   119   am
   127   142   141    1
   128   140   141    1
   129   140   137    1
   130   119   120    2
   131   119   118    1
   132   121   118    1
   133   121   122    1
   134   138   137    1
   135   138   139    2
   136   137   136    1
   137   117   118    1
   138   122   123    1
   139   126   125    1
   140   123   124    1
   141   125   124    2
   142   125   127    1
