@<TRIPOS>MOLECULE
tmp/1ee1A02.pdb
 217 206 0 0 0
SMALL
GASTEIGER

@<TRIPOS>ATOM
      1  N          2.5070   65.9490   47.5060 N.3    43  LEU43      -0.1231
      2  CA         3.9060   65.5470   47.5070 C.3    43  LEU43       0.1693
      3  C          4.1290   64.2970   48.3440 C.2    43  LEU43       0.2593
      4  O          3.6130   64.1880   49.4660 O.2    43  LEU43      -0.2718
      5  CB         4.7790   66.6800   48.0440 C.3    43  LEU43       0.0284
      6  CG         6.2630   66.3210   48.2220 C.3    43  LEU43       0.0019
      7  CD1        6.9190   65.9880   46.8710 C.3    43  LEU43       0.0001
      8  CD2        6.9960   67.4670   48.9100 C.3    43  LEU43       0.0001
      9  N          4.8760   63.3480   47.7860 N.am   44  GLY44      -0.1942
     10  CA         5.1780   62.1220   48.5090 C.3    44  GLY44       0.2014
     11  C          6.1710   62.4820   49.6060 C.2    44  GLY44       0.2639
     12  O          7.1420   63.1900   49.3340 O.2    44  GLY44      -0.2714
     13  N          5.9160   62.0480   50.8360 N.am   45  ILE45      -0.1963
     14  CA         6.7840   62.3430   51.9740 C.3    45  ILE45       0.1727
     15  C          7.5130   61.0510   52.3380 C.2    45  ILE45       0.2616
     16  O          6.8920   60.0940   52.7870 O.2    45  ILE45      -0.2715
     17  CB         5.9220   62.8630   53.1700 C.3    45  ILE45       0.0290
     18  CG1        5.2670   64.1930   52.7940 C.3    45  ILE45       0.0022
     19  CG2        6.7530   63.0330   54.4310 C.3    45  ILE45       0.0023
     20  CD1        6.2510   65.2890   52.3880 C.3    45  ILE45       0.0001
     21  N          8.8210   61.0160   52.1090 N.am   46  SER46      -0.1950
     22  CA         9.6220   59.8150   52.3810 C.3    46  SER46       0.1924
     23  C         10.2970   59.7110   53.7550 C.2    46  SER46       0.2314
     24  O         10.7250   58.6260   54.1660 O.2    46  SER46      -0.2863
     25  CB        10.7130   59.7010   51.3210 C.3    46  SER46       0.2116
     26  OG        11.6180   60.7990   51.4470 O.3    46  SER46      -0.2180
     27  N         12.9060   61.6560   54.2100 N.3    48  GLY48      -0.1210
     28  CA        14.2350   62.1310   53.8540 C.3    48  GLY48       0.1956
     29  C         14.2860   63.6500   53.8580 C.2    48  GLY48       0.2612
     30  O         13.2510   64.3120   53.7960 O.2    48  GLY48      -0.2717
     31  N         15.4870   64.2100   53.8950 N.am   49  GLN49      -0.1965
     32  CA        15.6570   65.6610   53.9290 C.3    49  GLN49       0.1733
     33  C         14.9200   66.4770   52.8540 C.2    49  GLN49       0.2616
     34  O         14.3310   67.5280   53.1490 O.2    49  GLN49      -0.2715
     35  CB        17.1500   66.0010   53.8740 C.3    49  GLN49       0.0408
     36  CG        17.4880   67.4810   53.6600 C.3    49  GLN49       0.0908
     37  CD        18.9790   67.7080   53.4650 C.2    49  GLN49       0.2608
     38  OE1       19.7970   67.1330   54.1820 O.2    49  GLN49      -0.2717
     39  NE2       19.3410   68.5360   52.4910 N.am   49  GLN49      -0.0878
     40  N         14.9830   66.0270   51.6020 N.am   50  ASP50      -0.1957
     41  CA        14.3660   66.7940   50.5020 C.3    50  ASP50       0.1840
     42  C         12.8470   66.9500   50.5110 C.2    50  ASP50       0.2622
     43  O         12.3400   68.0480   50.2770 O.2    50  ASP50      -0.2715
     44  CB        14.7950   66.2530   49.1360 C.3    50  ASP50       0.1450
     45  CG        16.2860   66.1010   49.0020 C.2    50  ASP50       0.3671
     46  OD1       17.0740   66.8910   49.5800 O.co2  50  ASP50      -0.2456
     47  OD2       16.6810   65.1640   48.2840 O.co2  50  ASP50      -0.2456
     48  N         12.1180   65.8650   50.7390 N.am   51  SER51      -0.1950
     49  CA        10.6750   65.9750   50.7570 C.3    51  SER51       0.1924
     50  C         10.2100   66.6680   52.0260 C.2    51  SER51       0.2314
     51  O          9.1340   67.2690   52.0470 O.2    51  SER51      -0.2863
     52  CB         9.9930   64.6180   50.5400 C.3    51  SER51       0.2116
     53  OG        10.4750   63.6150   51.4090 O.3    51  SER51      -0.2180
     54  N          1.6470   62.6600   51.0690 N.3    77  VAL77      -0.1231
     55  CA         1.3400   61.2450   50.9070 C.3    77  VAL77       0.1692
     56  C          2.5110   60.3330   51.2600 C.2    77  VAL77       0.2592
     57  O          3.6260   60.5480   50.7990 O.2    77  VAL77      -0.2718
     58  CB         1.0020   60.9020   49.4170 C.3    77  VAL77       0.0266
     59  CG1        0.2230   59.5920   49.3220 C.3    77  VAL77       0.0020
     60  CG2        0.2730   62.0390   48.7720 C.3    77  VAL77       0.0020
     61  N          2.2440   59.3010   52.0490 N.am   78  ARG78      -0.1966
     62  CA         3.2560   58.3090   52.3960 C.3    78  ARG78       0.1729
     63  C          3.1120   57.2970   51.2750 C.2    78  ARG78       0.2616
     64  O          1.9960   56.8480   50.9940 O.2    78  ARG78      -0.2715
     65  CB         2.9120   57.6500   53.7240 C.3    78  ARG78       0.0348
     66  CG         3.1610   58.5630   54.9060 C.3    78  ARG78       0.0492
     67  CD         4.6480   58.6900   55.1340 C.3    78  ARG78       0.2205
     68  NE         5.2490   57.3630   55.2720 N.pl3  78  ARG78      -0.0865
     69  CZ         6.0650   56.7980   54.3830 C.cat  78  ARG78       0.5346
     70  NH1        6.4130   57.4370   53.2670 N.pl3  78  ARG78       0.1354
     71  NH2        6.5060   55.5680   54.5990 N.pl3  78  ARG78       0.1354
     72  N          4.2170   56.9360   50.6320 N.am   79  LEU79      -0.1977
     73  CA         4.1780   55.9890   49.5080 C.3    79  LEU79       0.1596
     74  C          5.0900   54.7850   49.7730 C.2    79  LEU79       0.2287
     75  O          6.0850   54.5630   49.0720 O.2    79  LEU79      -0.2864
     76  CB         4.5870   56.7110   48.2080 C.3    79  LEU79       0.0297
     77  CG         3.7130   57.8940   47.7620 C.3    79  LEU79       0.0022
     78  CD1        4.4050   58.7520   46.7170 C.3    79  LEU79       0.0001
     79  CD2        2.3820   57.3840   47.2280 C.3    79  LEU79       0.0001
     80  N          8.0590   50.2650   55.2590 N.3    84  GLN84      -0.1245
     81  CA         9.2040   51.1360   55.0540 C.3    84  GLN84       0.1566
     82  C         10.0660   51.0280   56.2970 C.2    84  GLN84       0.2260
     83  O          9.5970   51.2550   57.4180 O.2    84  GLN84      -0.2867
     84  CB         8.7920   52.5920   54.8060 C.3    84  GLN84       0.0367
     85  CG        10.0010   53.5050   54.5400 C.3    84  GLN84       0.0905
     86  CD         9.6510   54.7770   53.7730 C.2    84  GLN84       0.2608
     87  OE1        8.6420   54.8270   53.0660 O.2    84  GLN84      -0.2717
     88  NE2       10.5020   55.7960   53.8820 N.am   84  GLN84      -0.0878
     89  N          5.2580   55.6330   42.0260 N.3   139  ARG139     -0.1245
     90  CA         4.9860   56.7140   42.9810 C.3   139  ARG139      0.1563
     91  C          4.5350   57.9890   42.2490 C.2   139  ARG139      0.2260
     92  O          3.7170   58.7560   42.7550 O.2   139  ARG139     -0.2867
     93  CB         6.2070   57.0030   43.8530 C.3   139  ARG139      0.0307
     94  CG         6.4570   55.9080   44.8690 C.3   139  ARG139      0.0489
     95  CD         7.5240   56.2770   45.8480 C.3   139  ARG139      0.2205
     96  NE         7.5780   55.2900   46.9290 N.pl3 139  ARG139     -0.0865
     97  CZ         8.5040   54.3420   47.0440 C.cat 139  ARG139      0.5346
     98  NH1        9.4860   54.2330   46.1530 N.pl3 139  ARG139      0.1354
     99  NH2        8.4280   53.4780   48.0390 N.pl3 139  ARG139      0.1354
    100  N          0.9220   59.9570   42.8020 N.3   143  GLN143     -0.1245
    101  CA         0.8050   61.3760   43.0880 C.3   143  GLN143      0.1566
    102  C         -0.0330   62.1140   42.0640 C.2   143  GLN143      0.2260
    103  O         -0.7830   63.0280   42.4150 O.2   143  GLN143     -0.2867
    104  CB         2.1820   62.0020   43.2000 C.3   143  GLN143      0.0367
    105  CG         2.8660   61.6220   44.4750 C.3   143  GLN143      0.0905
    106  CD         4.3510   61.9130   44.4530 C.2   143  GLN143      0.2608
    107  OE1        5.1430   61.0880   44.0110 O.2   143  GLN143     -0.2717
    108  NE2        4.7360   63.0830   44.9390 N.am  143  GLN143     -0.0878
    109  N         11.0150   67.1220   44.2250 N.3   157  THR157     -0.1218
    110  CA        12.0170   67.4820   45.2180 C.3   157  THR157      0.1862
    111  C         13.4270   67.6990   44.6400 C.2   157  THR157      0.2287
    112  O         14.3870   67.9280   45.3780 O.2   157  THR157     -0.2866
    113  CB        12.0640   66.4070   46.3120 C.3   157  THR157      0.1770
    114  OG1       12.2490   65.1220   45.7020 O.3   157  THR157     -0.2211
    115  CG2       10.7560   66.3800   47.1000 C.3   157  THR157      0.0375
    116  N         16.8080   69.0430   43.2840 N.3   159  HIS159     -0.1241
    117  CA        17.6250   70.1820   43.6460 C.3   159  HIS159      0.1621
    118  C         18.9480   69.9830   42.9000 C.2   159  HIS159      0.2264
    119  O         19.1990   68.9080   42.3430 O.2   159  HIS159     -0.2867
    120  CB        17.8320   70.2440   45.1650 C.3   159  HIS159      0.0745
    121  CG        18.3740   68.9790   45.7590 C.ar  159  HIS159      0.0817
    122  ND1       17.5720   68.0450   46.3810 N.ar  159  HIS159     -0.2268
    123  CD2       19.6260   68.4700   45.7870 C.ar  159  HIS159      0.1154
    124  CE1       18.3070   67.0180   46.7580 C.ar  159  HIS159      0.1986
    125  NE2       19.5570   67.2490   46.4090 N.ar  159  HIS159     -0.2212
    126  N         21.3670   66.7810   43.1270 N.3   162  GLU162     -0.1245
    127  CA        20.9370   65.5290   42.5100 C.3   162  GLU162      0.1567
    128  C         20.7400   65.7370   41.0050 C.2   162  GLU162      0.2260
    129  O         20.7560   64.7850   40.2230 O.2   162  GLU162     -0.2867
    130  CB        19.6560   64.9980   43.1500 C.3   162  GLU162      0.0388
    131  CG        18.4170   65.7440   42.7790 C.3   162  GLU162      0.1160
    132  CD        17.1840   64.9070   43.0300 C.2   162  GLU162      0.3649
    133  OE1       16.2430   64.9160   42.1920 O.co2 162  GLU162     -0.2457
    134  OE2       17.1690   64.2220   44.0750 O.co2 162  GLU162     -0.2457
    135  N         20.7520   61.9970   39.3590 N.3   167  PHE167     -0.1241
    136  CA        20.3920   60.9940   40.3510 C.3   167  PHE167      0.1605
    137  C         18.8980   60.9430   40.7150 C.2   167  PHE167      0.2264
    138  O         18.4970   61.1420   41.8740 O.2   167  PHE167     -0.2867
    139  CB        21.2500   61.1730   41.6120 C.3   167  PHE167      0.0534
    140  CG        21.2760   59.9670   42.4920 C.ar  167  PHE167     -0.0203
    141  CD1       21.8870   58.7920   42.0600 C.ar  167  PHE167     -0.0042
    142  CD2       20.6840   59.9960   43.7500 C.ar  167  PHE167     -0.0042
    143  CE1       21.9110   57.6620   42.8720 C.ar  167  PHE167     -0.0003
    144  CE2       20.7010   58.8760   44.5630 C.ar  167  PHE167     -0.0003
    145  CZ        21.3180   57.7010   44.1230 C.ar  167  PHE167     -0.0000
    146  N         10.5880   59.9610   40.0740 N.3   173  ASP173     -0.1239
    147  CA        10.6360   61.1110   40.9760 C.3   173  ASP173      0.1674
    148  C         10.9830   62.3800   40.2220 C.2   173  ASP173      0.2266
    149  O         10.7620   63.4880   40.7060 O.2   173  ASP173     -0.2867
    150  CB        11.5750   60.8800   42.1550 C.3   173  ASP173      0.1410
    151  CG        12.9360   60.3830   41.7390 C.2   173  ASP173      0.3668
    152  OD1       13.9160   60.7610   42.4000 O.co2 173  ASP173     -0.2456
    153  OD2       13.0320   59.5920   40.7900 O.co2 173  ASP173     -0.2456
    154  N         22.8470   70.3660   48.6290 N.3   186  LYS186     -0.1245
    155  CA        22.4130   69.5530   49.7660 C.3   186  LYS186      0.1561
    156  C         22.6380   70.2460   51.1230 C.2   186  LYS186      0.2260
    157  O         21.7570   70.2150   51.9940 O.2   186  LYS186     -0.2867
    158  CB        23.1200   68.1860   49.7260 C.3   186  LYS186      0.0271
    159  CG        22.4540   67.0710   50.5240 C.3   186  LYS186      0.0035
    160  CD        21.0820   66.7250   49.9640 C.3   186  LYS186      0.0206
    161  CE        20.6080   65.3680   50.4730 C.3   186  LYS186      0.1093
    162  NZ        19.3490   64.9440   49.8030 N.3   186  LYS186     -0.1314
    163  N         21.2660   60.2750   52.9690 N.3   207  PRO207     -0.2102
    164  CA        20.3110   60.3390   51.8580 C.3   207  PRO207      0.1504
    165  C         20.2370   58.9630   51.1830 C.2   207  PRO207      0.2576
    166  O         21.2650   58.2970   50.9870 O.2   207  PRO207     -0.2718
    167  CB        20.9290   61.3920   50.9380 C.3   207  PRO207      0.0282
    168  CG        21.5690   62.3230   51.9000 C.3   207  PRO207      0.0208
    169  CD        22.2350   61.3830   52.8920 C.3   207  PRO207      0.0893
    170  N         19.0200   58.5190   50.8950 N.am  208  THR208     -0.1939
    171  CA        18.8090   57.2260   50.2490 C.3   208  THR208      0.2028
    172  C         17.5850   57.2760   49.3320 C.2   208  THR208      0.2642
    173  O         16.6370   58.0750   49.5640 O.2   208  THR208     -0.2714
    174  CB        18.6790   56.0490   51.3240 C.3   208  THR208      0.1808
    175  OG1       18.3830   54.8010   50.6830 O.3   208  THR208     -0.2208
    176  CG2       17.5680   56.3360   52.3330 C.3   208  THR208      0.0379
    177  N         17.6640   56.4840   48.2580 N.am  209  ALA209     -0.1963
    178  CA        16.6040   56.3130   47.2620 C.3   209  ALA209      0.1728
    179  C         15.6650   55.2200   47.7920 C.2   209  ALA209      0.2616
    180  O         14.4460   55.3110   47.6350 O.2   209  ALA209     -0.2715
    181  CB        17.2030   55.8700   45.9200 C.3   209  ALA209      0.0334
    182  N         16.2580   54.2030   48.4290 N.am  210  ASP210     -0.1957
    183  CA        15.5550   53.0560   49.0320 C.3   210  ASP210      0.1840
    184  C         14.6370   52.3440   48.0430 C.2   210  ASP210      0.2621
    185  O         13.4990   52.0160   48.3700 O.2   210  ASP210     -0.2715
    186  CB        14.7720   53.4930   50.2830 C.3   210  ASP210      0.1450
    187  CG        14.1750   52.3090   51.0550 C.2   210  ASP210      0.3671
    188  OD1       14.7690   51.2100   51.0460 O.co2 210  ASP210     -0.2456
    189  OD2       13.0980   52.4690   51.6670 O.co2 210  ASP210     -0.2456
    190  N         15.1680   52.0440   46.8620 N.am  211  LEU211     -0.1977
    191  CA        14.3790   51.4120   45.8030 C.3   211  LEU211      0.1596
    192  C         14.6510   49.9380   45.5640 C.2   211  LEU211      0.2287
    193  O         13.9200   49.2770   44.8230 O.2   211  LEU211     -0.2864
    194  CB        14.5870   52.1650   44.4870 C.3   211  LEU211      0.0297
    195  CG        14.1210   53.6230   44.4550 C.3   211  LEU211      0.0022
    196  CD1       14.7180   54.3270   43.2450 C.3   211  LEU211      0.0001
    197  CD2       12.5980   53.7110   44.4590 C.3   211  LEU211      0.0001
    198  N         22.9920   57.0420   48.9740 N.3   220  ASP220     -0.1239
    199  CA        23.2910   57.6590   47.6920 C.3   220  ASP220      0.1674
    200  C         24.7930   57.6110   47.4340 C.2   220  ASP220      0.2266
    201  O         25.2260   57.2210   46.3530 O.2   220  ASP220     -0.2867
    202  CB        22.8580   59.1260   47.6820 C.3   220  ASP220      0.1410
    203  CG        21.3620   59.3090   47.8120 C.2   220  ASP220      0.3668
    204  OD1       20.6170   58.3100   47.8920 O.co2 220  ASP220     -0.2456
    205  OD2       20.9290   60.4810   47.8340 O.co2 220  ASP220     -0.2456
    206  N         28.2540   63.9950   49.2120 N.3   228  TYR228     -0.1241
    207  CA        27.4590   65.1870   48.9910 C.3   228  TYR228      0.1605
    208  C         28.2560   66.4340   49.3000 C.2   228  TYR228      0.2264
    209  O         28.0250   67.4860   48.7170 O.2   228  TYR228     -0.2867
    210  CB        26.1580   65.1220   49.7880 C.3   228  TYR228      0.0534
    211  CG        25.0720   64.4500   48.9770 C.ar  228  TYR228     -0.0201
    212  CD1       24.6480   63.1560   49.2800 C.ar  228  TYR228     -0.0009
    213  CD2       24.5190   65.0880   47.8540 C.ar  228  TYR228     -0.0009
    214  CE1       23.7090   62.5030   48.4930 C.ar  228  TYR228      0.0417
    215  CE2       23.5740   64.4420   47.0550 C.ar  228  TYR228      0.0417
    216  CZ        23.1730   63.1440   47.3860 C.ar  228  TYR228      0.1957
    217  OH        22.2260   62.4840   46.6250 O.3   228  TYR228     -0.2866
@<TRIPOS>BOND
     1   135   136    1
     2   146   147    1
     3   148   149    2
     4   148   147    1
     5   129   128    2
     6   136   137    1
     7   136   139    1
     8   137   138    2
     9   153   151   ar
    10   147   150    1
    11   128   127    1
    12   139   140    1
    13   151   150    1
    14   151   152   ar
    15    89    90    1
    16   141   140   ar
    17   141   143   ar
    18   102   103    2
    19   102   101    1
    20   133   132   ar
    21    91    92    2
    22    91    90    1
    23   119   118    2
    24   140   142   ar
    25   127   126    1
    26   127   130    1
    27   131   132    1
    28   131   130    1
    29   100   101    1
    30   143   145   ar
    31   118   117    1
    32    90    93    1
    33   132   134   ar
    34   101   104    1
    35   104   105    1
    36   196   195    1
    37   116   117    1
    38   117   120    1
    39   142   144   ar
    40    93    94    1
    41   107   106    2
    42   145   144   ar
    43   109   110    1
    44   106   105    1
    45   106   108   am
    46   195   197    1
    47   195   194    1
    48   194   191    1
    49   111   110    1
    50   111   112    2
    51   193   192    2
    52    94    95    1
    53   120   121    1
    54   110   113    1
    55   192   191    1
    56   114   113    1
    57   121   123   ar
    58   121   122   ar
    59   123   125   ar
    60   191   190    1
    61    95    96    1
    62   181   178    1
    63    98    97    1
    64   113   115    1
    65   201   200    2
    66   122   124   ar
    67   125   124   ar
    68   217   216    1
    69    78    77    1
    70   190   184   am
    71     7     6    1
    72    96    97    2
    73    97    99    1
    74   215   216   ar
    75   215   213   ar
    76    79    77    1
    77   178   179    1
    78   178   177    1
    79   216   214   ar
    80   200   199    1
    81     1     2    1
    82     2     5    1
    83     2     3    1
    84   180   179    2
    85   202   199    1
    86   202   203    1
    87   199   198    1
    88    77    76    1
    89     9     3   am
    90     9    10    1
    91   179   182   am
    92   203   205   ar
    93   203   204   ar
    94   213   211   ar
    95   184   185    2
    96   184   183    1
    97     5     6    1
    98    76    73    1
    99     6     8    1
   100   177   172   am
   101    47    45   ar
   102     3     4    2
   103   182   183    1
   104   214   212   ar
   105    10    11    1
   106   154   155    1
   107   209   208    2
   108    60    58    1
   109   211   212   ar
   110   211   210    1
   111   207   206    1
   112   207   208    1
   113   207   210    1
   114    45    44    1
   115    45    46   ar
   116   183   186    1
   117    75    74    2
   118    44    41    1
   119    59    58    1
   120   172   173    2
   121   172   171    1
   122    12    11    2
   123    58    55    1
   124    73    74    1
   125    73    72    1
   126    11    13   am
   127   158   155    1
   128   158   159    1
   129   155   156    1
   130   162   161    1
   131   160   161    1
   132   160   159    1
   133   171   170    1
   134   171   174    1
   135    43    42    2
   136   186   187    1
   137    41    42    1
   138    41    40    1
   139    42    48   am
   140    52    49    1
   141    52    53    1
   142    72    63   am
   143   175   174    1
   144    48    49    1
   145    49    50    1
   146    57    56    2
   147    13    14    1
   148   170   165   am
   149    55    54    1
   150    55    56    1
   151   167   164    1
   152   167   168    1
   153   166   165    2
   154    64    63    2
   155   188   187   ar
   156   187   189   ar
   157   156   157    2
   158   165   164    1
   159    56    61   am
   160    63    62    1
   161    25    26    1
   162    25    22    1
   163   174   176    1
   164    40    33   am
   165   164   163    1
   166   168   169    1
   167    14    15    1
   168    14    17    1
   169    50    51    2
   170    61    62    1
   171    21    15   am
   172    21    22    1
   173    15    16    2
   174    22    23    1
   175    20    18    1
   176    62    65    1
   177    39    37   am
   178    18    17    1
   179    33    34    2
   180    33    32    1
   181   169   163    1
   182    87    86    2
   183    17    19    1
   184    70    69    1
   185    37    36    1
   186    37    38    2
   187    36    35    1
   188    65    66    1
   189    23    24    2
   190    86    88   am
   191    86    85    1
   192    30    29    2
   193    28    29    1
   194    28    27    1
   195    29    31   am
   196    35    32    1
   197    31    32    1
   198    69    71    1
   199    69    68    2
   200    85    84    1
   201    84    81    1
   202    66    67    1
   203    81    80    1
   204    81    82    1
   205    67    68    1
   206    82    83    2
