@<TRIPOS>MOLECULE
tmp/1ee2B01.pdb
 126 118 0 0 0
SMALL
GASTEIGER

@<TRIPOS>ATOM
      1  N         18.1730   -5.3160   -0.8830 N.3    46  CYS46      -0.1235
      2  CA        17.9800   -5.2070    0.5400 C.3    46  CYS46       0.1677
      3  C         17.8750   -6.6300    1.1580 C.2    46  CYS46       0.2270
      4  O         17.3320   -7.5130    0.5210 O.2    46  CYS46      -0.2867
      5  CB        16.7430   -4.3490    0.8430 C.3    46  CYS46       0.0956
      6  SG        16.2130   -4.2960    2.5670 S.3    46  CYS46      -0.0801
      7  N         15.7500   -7.6110    3.2080 N.3    48  SER48      -0.1217
      8  CA        14.3820   -8.1030    3.2500 C.3    48  SER48       0.1889
      9  C         13.9760   -8.7590    1.9480 C.2    48  SER48       0.2288
     10  O         13.1100   -9.6610    2.0100 O.2    48  SER48      -0.2866
     11  CB        13.4270   -6.9350    3.5660 C.3    48  SER48       0.2089
     12  OG        13.7600   -6.4780    4.8950 O.3    48  SER48      -0.2183
     13  N         10.7050  -14.3350    5.5790 N.3    57  LEU57      -0.1245
     14  CA         9.4930  -13.6020    5.2740 C.3    57  LEU57       0.1561
     15  C          8.6880  -14.5730    4.3720 C.2    57  LEU57       0.2260
     16  O          9.2610  -15.2350    3.4900 O.2    57  LEU57      -0.2867
     17  CB         9.6330  -12.2830    4.5230 C.3    57  LEU57       0.0270
     18  CG        10.1810  -11.1050    5.3580 C.3    57  LEU57       0.0019
     19  CD1       10.4450   -9.8600    4.5150 C.3    57  LEU57       0.0001
     20  CD2        9.1910  -10.7900    6.4810 C.3    57  LEU57       0.0001
     21  N         11.9690   -3.6250   -3.6780 N.3    67  HIS67      -0.1241
     22  CA        11.2480   -2.5010   -3.0710 C.3    67  HIS67       0.1621
     23  C         12.0990   -1.2770   -2.7890 C.2    67  HIS67       0.2264
     24  O         11.5220   -0.2800   -2.3110 O.2    67  HIS67      -0.2867
     25  CB        10.6430   -2.9440   -1.7180 C.3    67  HIS67       0.0745
     26  CG        11.6910   -3.3420   -0.7170 C.ar   67  HIS67       0.0817
     27  ND1       12.3720   -4.5970   -0.7720 N.ar   67  HIS67      -0.2268
     28  CD2       12.1730   -2.6690    0.3300 C.ar   67  HIS67       0.1154
     29  CE1       13.2170   -4.5720    0.2640 C.ar   67  HIS67       0.1986
     30  NE2       13.1200   -3.4460    0.9370 N.ar   67  HIS67      -0.2212
     31  N          7.3790    1.5900   -0.4160 N.3    93  PHE93      -0.1227
     32  CA         6.8670    0.2750    0.0340 C.3    93  PHE93       0.1736
     33  C          5.8450    0.3510    1.1620 C.2    93  PHE93       0.2595
     34  O          5.1700   -0.5870    1.5080 O.2    93  PHE93      -0.2718
     35  CB         8.0070   -0.7070    0.3420 C.3    93  PHE93       0.0547
     36  CG         8.8940   -0.3600    1.5100 C.ar   93  PHE93      -0.0202
     37  CD1        8.4530   -0.6850    2.7960 C.ar   93  PHE93      -0.0042
     38  CD2       10.1280    0.2540    1.3600 C.ar   93  PHE93      -0.0042
     39  CE1        9.2280   -0.4020    3.8830 C.ar   93  PHE93      -0.0003
     40  CE2       10.8950    0.5230    2.4670 C.ar   93  PHE93      -0.0003
     41  CZ        10.4860    0.2140    3.7700 C.ar   93  PHE93      -0.0000
     42  N          5.6780    1.5400    1.7650 N.am   94  ILE94      -0.1980
     43  CA         4.7260    1.8650    2.7950 C.3    94  ILE94       0.1595
     44  C          4.1240    3.1150    2.1350 C.2    94  ILE94       0.2287
     45  O          4.8560    4.0610    1.8010 O.2    94  ILE94      -0.2864
     46  CB         5.0820    2.0100    4.2650 C.3    94  ILE94       0.0276
     47  CG1        6.2300    2.9560    4.4660 C.3    94  ILE94       0.0022
     48  CG2        5.3690    0.6020    4.8240 C.3    94  ILE94       0.0022
     49  CD1        6.2240    3.4190    5.9310 C.3    94  ILE94       0.0001
     50  N          2.8630    3.8750    9.5080 N.3   110  LEU110     -0.1245
     51  CA         2.3440    2.6880    8.8490 C.3   110  LEU110      0.1561
     52  C          0.8830    2.9130    8.4390 C.2   110  LEU110      0.2260
     53  O         -0.1300    2.5720    9.0860 O.2   110  LEU110     -0.2867
     54  CB         2.4670    1.4870    9.7920 C.3   110  LEU110      0.0270
     55  CG         2.0420    0.1730    9.1390 C.3   110  LEU110      0.0019
     56  CD1        2.8980   -0.1530    7.9290 C.3   110  LEU110      0.0001
     57  CD2        2.1190   -0.9660   10.1920 C.3   110  LEU110      0.0001
     58  N         -1.2870    0.0320    3.7990 N.3   114  ASN114     -0.1240
     59  CA        -0.0840   -0.7450    3.4760 C.3   114  ASN114      0.1653
     60  C         -0.4910   -2.1640    3.1510 C.2   114  ASN114      0.2266
     61  O         -1.3340   -2.8430    3.6950 O.2   114  ASN114     -0.2867
     62  CB         0.8430   -0.7120    4.6830 C.3   114  ASN114      0.1155
     63  CG         0.4650   -1.6330    5.8340 C.2   114  ASN114      0.2627
     64  OD1        0.9020   -2.8340    5.8980 O.2   114  ASN114     -0.2716
     65  ND2       -0.3460   -1.1850    6.7940 N.am  114  ASN114     -0.0877
     66  N          1.1110   -5.5230    3.1930 N.3   116  SER116     -0.1202
     67  CA         2.2480   -6.2260    3.7920 C.3   116  SER116      0.2020
     68  C          2.4490   -7.5940    3.1860 C.2   116  SER116      0.2619
     69  O          1.8850   -7.9050    2.1160 O.2   116  SER116     -0.2717
     70  CB         2.0560   -6.3020    5.3110 C.3   116  SER116      0.2103
     71  OG         3.2870   -6.7740    5.9030 O.3   116  SER116     -0.2182
     72  N          3.1450   -8.4890    3.8420 N.am  117  MET117     -0.1965
     73  CA         3.4720   -9.7880    3.2560 C.3   117  MET117      0.1721
     74  C          2.3440  -10.6450    2.7280 C.2   117  MET117      0.2458
     75  O          2.5000  -11.2220    1.6240 O.2   117  MET117     -0.2730
     76  CB         4.2900  -10.6390    4.2500 C.3   117  MET117      0.0427
     77  CG         5.6190  -10.0790    4.7020 C.3   117  MET117      0.0599
     78  SD         6.9670   -9.7280    3.5810 S.3   117  MET117     -0.1393
     79  CE         6.9340  -11.1060    2.4600 C.3   117  MET117      0.0692
     80  N          1.2570  -10.7930    3.4340 N.am  118  PRO118     -0.2727
     81  CA         0.2010  -11.6710    2.8960 C.3   118  PRO118      0.1402
     82  C         -0.5890  -11.2070    1.6990 C.2   118  PRO118      0.2269
     83  O         -1.2440  -11.9810    0.9910 O.2   118  PRO118     -0.2865
     84  CB        -0.8240  -11.8830    4.0550 C.3   118  PRO118      0.0296
     85  CG        -0.0410  -11.3760    5.2330 C.3   118  PRO118      0.0237
     86  CD         0.9530  -10.2910    4.7870 C.3   118  PRO118      0.0939
     87  N          4.7950   -7.4710   -4.6020 N.3   139  PHE139     -0.1227
     88  CA         5.4860   -7.4740   -3.2960 C.3   139  PHE139      0.1736
     89  C          5.5320   -6.0560   -2.7550 C.2   139  PHE139      0.2595
     90  O          6.0770   -5.1560   -3.3920 O.2   139  PHE139     -0.2718
     91  CB         6.9040   -8.0080   -3.4550 C.3   139  PHE139      0.0547
     92  CG         7.7090   -8.0830   -2.1900 C.ar  139  PHE139     -0.0202
     93  CD1        7.3200   -8.9040   -1.1430 C.ar  139  PHE139     -0.0042
     94  CD2        8.8600   -7.3110   -2.0840 C.ar  139  PHE139     -0.0042
     95  CE1        8.1110   -8.9400   -0.0040 C.ar  139  PHE139     -0.0003
     96  CE2        9.6310   -7.3550   -0.9380 C.ar  139  PHE139     -0.0003
     97  CZ         9.2610   -8.1560    0.1060 C.ar  139  PHE139     -0.0000
     98  N          4.9460   -5.8250   -1.5850 N.am  140  LEU140     -0.1980
     99  CA         4.8870   -4.5220   -0.8710 C.3   140  LEU140      0.1596
    100  C          4.2770   -3.4400   -1.7290 C.2   140  LEU140      0.2287
    101  O          4.5930   -2.2380   -1.5110 O.2   140  LEU140     -0.2864
    102  CB         6.2650   -4.0960   -0.3370 C.3   140  LEU140      0.0297
    103  CG         6.8990   -5.0830    0.6560 C.3   140  LEU140      0.0022
    104  CD1        8.3370   -4.6630    0.8490 C.3   140  LEU140      0.0001
    105  CD2        6.1060   -4.8980    1.9260 C.3   140  LEU140      0.0001
    106  N         14.7080    2.6320    0.7300 N.3   173  CYS173     -0.1235
    107  CA        14.6600    1.7520    1.8470 C.3   173  CYS173      0.1677
    108  C         15.8540    1.8680    2.8290 C.2   173  CYS173      0.2270
    109  O         15.6450    2.4580    3.8900 O.2   173  CYS173     -0.2867
    110  CB        14.5060    0.2870    1.5080 C.3   173  CYS173      0.0956
    111  SG        14.3410   -0.7460    3.0260 S.3   173  CYS173     -0.0801
    112  N         14.1540   -7.4540   10.8260 N.3   293  VAL293     -0.1245
    113  CA        12.9510   -8.3020   10.6530 C.3   293  VAL293      0.1561
    114  C         13.2250   -9.6950   11.2250 C.2   293  VAL293      0.2260
    115  O         14.1340  -10.3550   10.6850 O.2   293  VAL293     -0.2867
    116  CB        12.6630   -8.4030    9.1730 C.3   293  VAL293      0.0252
    117  CG1       11.6020   -9.4840    8.8770 C.3   293  VAL293      0.0019
    118  CG2       12.1730   -7.0810    8.5860 C.3   293  VAL293      0.0019
    119  N          9.2340    0.9760   11.1360 N.3   317  ILE317     -0.1245
    120  CA         9.3620    0.6610    9.7360 C.3   317  ILE317      0.1561
    121  C          9.7780    1.9340    9.0310 C.2   317  ILE317      0.2260
    122  O          9.3040    3.0650    9.2850 O.2   317  ILE317     -0.2867
    123  CB         8.0250    0.1930    9.1320 C.3   317  ILE317      0.0252
    124  CG1        7.5320   -1.1220    9.8240 C.3   317  ILE317      0.0019
    125  CG2        8.1080   -0.0330    7.6260 C.3   317  ILE317      0.0019
    126  CD1        6.0400   -1.3160    9.6480 C.3   317  ILE317      0.0001
@<TRIPOS>BOND
     1    87    88    1
     2    21    22    1
     3    91    88    1
     4    91    92    1
     5    90    89    2
     6    88    89    1
     7    22    23    1
     8    22    25    1
     9    23    24    2
    10    89    98   am
    11    92    94   ar
    12    92    93   ar
    13    94    96   ar
    14   100   101    2
    15   100    99    1
    16    25    26    1
    17    98    99    1
    18    93    95   ar
    19    96    97   ar
    20     1     2    1
    21    99   102    1
    22    27    26   ar
    23    27    29   ar
    24    26    28   ar
    25    31    32    1
    26   102   103    1
    27    95    97   ar
    28    32    35    1
    29    32    33    1
    30    29    30   ar
    31    28    30   ar
    32    35    36    1
    33     4     3    2
    34     2     5    1
    35     2     3    1
    36   103   104    1
    37   103   105    1
    38   106   107    1
    39     5     6    1
    40    83    82    2
    41    33    34    2
    42    33    42   am
    43    38    36   ar
    44    38    40   ar
    45   110   107    1
    46   110   111    1
    47    36    37   ar
    48    75    74    2
    49    82    81    1
    50    42    43    1
    51    45    44    2
    52   107   108    1
    53     9    10    2
    54     9     8    1
    55    69    68    2
    56    44    43    1
    57    79    78    1
    58    40    41   ar
    59    74    73    1
    60    74    80   am
    61    43    46    1
    62    37    39   ar
    63   108   109    2
    64    81    80    1
    65    81    84    1
    66    60    59    1
    67    60    61    2
    68    68    67    1
    69    68    72   am
    70    66    67    1
    71     7     8    1
    72     8    11    1
    73    73    72    1
    74    73    76    1
    75    80    86    1
    76    59    58    1
    77    59    62    1
    78    16    15    2
    79    11    12    1
    80    78    77    1
    81    41    39   ar
    82    67    70    1
    83    84    85    1
    84    76    77    1
    85    46    47    1
    86    46    48    1
    87    15    14    1
    88    47    49    1
    89    19    18    1
    90    17    14    1
    91    17    18    1
    92    62    63    1
    93    86    85    1
    94    14    13    1
    95    70    71    1
    96    18    20    1
    97    63    64    2
    98    63    65   am
    99   125   123    1
   100    56    55    1
   101    52    51    1
   102    52    53    2
   103   118   116    1
   104    51    50    1
   105    51    54    1
   106   117   116    1
   107   121   122    2
   108   121   120    1
   109   123   120    1
   110   123   124    1
   111    55    54    1
   112    55    57    1
   113   116   113    1
   114   126   124    1
   115   120   119    1
   116   113   112    1
   117   113   114    1
   118   115   114    2
