@<TRIPOS>MOLECULE
tmp/1ee4A00.pdb
 246 239 0 0 0
SMALL
GASTEIGER

@<TRIPOS>ATOM
      1  N         -0.1960   33.1400   48.1200 N.3    29  LEU29      -0.1231
      2  CA         0.0340   31.8350   47.5040 C.3    29  LEU29       0.1693
      3  C         -0.2950   30.6750   48.4490 C.2    29  LEU29       0.2593
      4  O         -0.4100   29.5290   48.0080 O.2    29  LEU29      -0.2718
      5  CB         1.4860   31.7140   47.0330 C.3    29  LEU29       0.0284
      6  CG         1.9420   32.5150   45.8080 C.3    29  LEU29       0.0019
      7  CD1        3.4480   32.4420   45.6600 C.3    29  LEU29       0.0001
      8  CD2        1.2660   31.9640   44.5670 C.3    29  LEU29       0.0001
      9  N         -0.4570   30.9670   49.7410 N.am   30  SER30      -0.1938
     10  CA        -0.7670   29.9220   50.7210 C.3    30  SER30       0.2055
     11  C         -2.2480   29.5680   50.7690 C.2    30  SER30       0.2643
     12  O         -2.9410   29.8420   51.7520 O.2    30  SER30      -0.2714
     13  CB        -0.3000   30.3450   52.1100 C.3    30  SER30       0.2130
     14  OG         1.0910   30.5940   52.1060 O.3    30  SER30      -0.2179
     15  N         -2.7240   28.9450   49.6980 N.am   31  ARG31      -0.1963
     16  CA        -4.1200   28.5460   49.5970 C.3    31  ARG31       0.1729
     17  C         -4.1540   27.1620   48.9630 C.2    31  ARG31       0.2616
     18  O         -3.5470   26.9380   47.9200 O.2    31  ARG31      -0.2715
     19  CB        -4.8830   29.5640   48.7410 C.3    31  ARG31       0.0348
     20  CG        -6.3810   29.3270   48.7530 C.3    31  ARG31       0.0492
     21  CD        -7.1280   30.3870   47.9950 C.3    31  ARG31       0.2205
     22  NE        -8.5180   29.9910   47.7810 N.pl3  31  ARG31      -0.0865
     23  CZ        -9.5050   30.8410   47.5180 C.cat  31  ARG31       0.5346
     24  NH1       -9.2640   32.1430   47.4480 N.pl3  31  ARG31       0.1354
     25  NH2      -10.7250   30.3850   47.2670 N.pl3  31  ARG31       0.1354
     26  N         -4.8530   26.2330   49.6030 N.am   32  GLU32      -0.1977
     27  CA        -4.9340   24.8680   49.1030 C.3    32  GLU32       0.1602
     28  C         -5.7740   24.7330   47.8440 C.2    32  GLU32       0.2287
     29  O         -5.4500   23.9490   46.9520 O.2    32  GLU32      -0.2864
     30  CB        -5.4950   23.9450   50.1820 C.3    32  GLU32       0.0415
     31  CG        -5.6010   22.4990   49.7420 C.3    32  GLU32       0.1163
     32  CD        -4.2760   21.9550   49.2380 C.2    32  GLU32       0.3649
     33  OE1       -3.2780   22.0410   49.9830 O.co2  32  GLU32      -0.2457
     34  OE2       -4.2310   21.4380   48.1010 O.co2  32  GLU32      -0.2457
     35  N         -4.9740   28.2840   44.1200 N.3    35  PRO35      -0.2116
     36  CA        -3.9690   29.2660   44.5420 C.3    35  PRO35       0.1372
     37  C         -3.6790   30.2340   43.3940 C.2    35  PRO35       0.2244
     38  O         -3.6290   29.8240   42.2380 O.2    35  PRO35      -0.2868
     39  CB        -2.7520   28.3900   44.8530 C.3    35  PRO35       0.0268
     40  CG        -3.3690   27.0240   45.1260 C.3    35  PRO35       0.0207
     41  CD        -4.3460   26.9600   44.0000 C.3    35  PRO35       0.0892
     42  N          9.5630   29.8680   50.2510 N.3    67  TRP67      -0.1241
     43  CA         8.2300   29.4110   50.6110 C.3    67  TRP67       0.1605
     44  C          7.2820   29.7630   49.4600 C.2    67  TRP67       0.2264
     45  O          6.4840   28.9360   49.0190 O.2    67  TRP67      -0.2867
     46  CB         7.7940   30.1010   51.9000 C.3    67  TRP67       0.0550
     47  CG         6.5480   29.5530   52.5240 C.ar   67  TRP67       0.0003
     48  CD1        5.6040   28.7560   51.9360 C.ar   67  TRP67       0.0946
     49  CD2        6.0700   29.8360   53.8420 C.ar   67  TRP67       0.0152
     50  NE1        4.5650   28.5280   52.8090 N.ar   67  TRP67      -0.2442
     51  CE2        4.8250   29.1800   53.9850 C.ar   67  TRP67       0.0810
     52  CE3        6.5690   30.5830   54.9160 C.ar   67  TRP67       0.0012
     53  CZ2        4.0750   29.2500   55.1630 C.ar   67  TRP67       0.0191
     54  CZ3        5.8200   30.6540   56.0860 C.ar   67  TRP67       0.0001
     55  CH2        4.5860   29.9880   56.1970 C.ar   67  TRP67       0.0015
     56  N          7.9450   27.6160   46.5770 N.3    70  THR70      -0.1203
     57  CA         7.5060   26.2660   46.9140 C.3    70  THR70       0.1994
     58  C          6.0550   26.0630   46.4940 C.2    70  THR70       0.2617
     59  O          5.7040   25.0280   45.9210 O.2    70  THR70      -0.2717
     60  CB         7.6160   25.9970   48.4260 C.3    70  THR70       0.1784
     61  OG1        8.9950   25.9570   48.8000 O.3    70  THR70      -0.2211
     62  CG2        6.9510   24.6760   48.7950 C.3    70  THR70       0.0376
     63  N          5.2130   27.0500   46.7770 N.am   71  ASN71      -0.1974
     64  CA         3.8110   26.9390   46.4170 C.3    71  ASN71       0.1688
     65  C          3.5330   27.1920   44.9470 C.2    71  ASN71       0.2292
     66  O          2.5170   26.7420   44.4240 O.2    71  ASN71      -0.2864
     67  CB         2.9460   27.8240   47.3170 C.3    71  ASN71       0.1181
     68  CG         2.8760   27.2890   48.7300 C.2    71  ASN71       0.2629
     69  OD1        2.9520   26.0780   48.9340 O.2    71  ASN71      -0.2716
     70  ND2        2.7010   28.1690   49.7080 N.am   71  ASN71      -0.0877
     71  N          5.5290   26.0540   42.7270 N.3    73  ALA73      -0.1231
     72  CA         5.8970   24.7370   42.2160 C.3    73  ALA73       0.1694
     73  C          4.8780   23.6710   42.6040 C.2    73  ALA73       0.2593
     74  O          4.9580   22.5360   42.1490 O.2    73  ALA73      -0.2718
     75  CB         7.2780   24.3400   42.7200 C.3    73  ALA73       0.0304
     76  N          3.9220   24.0300   43.4490 N.am   74  SER74      -0.1938
     77  CA         2.9010   23.0720   43.8560 C.3    74  SER74       0.2055
     78  C          1.7960   23.0260   42.8110 C.2    74  SER74       0.2643
     79  O          0.8140   22.3070   42.9800 O.2    74  SER74      -0.2714
     80  CB         2.2790   23.4750   45.1840 C.3    74  SER74       0.2130
     81  OG         1.5140   24.6560   45.0330 O.3    74  SER74      -0.2179
     82  N          1.9540   23.8030   41.7410 N.am   75  GLY75      -0.1954
     83  CA         0.9370   23.8450   40.7090 C.3    75  GLY75       0.1869
     84  C          1.1580   22.8760   39.5680 C.2    75  GLY75       0.2309
     85  O          1.6960   21.7890   39.7580 O.2    75  GLY75      -0.2863
     86  N          5.2230   25.0990   37.2060 N.3    80  THR80      -0.1218
     87  CA         6.4570   24.6100   37.8090 C.3    80  THR80       0.1862
     88  C          7.6360   24.8910   36.8870 C.2    80  THR80       0.2287
     89  O          8.7390   25.1930   37.3400 O.2    80  THR80      -0.2866
     90  CB         6.3800   23.0940   38.0760 C.3    80  THR80       0.1770
     91  OG1        5.2810   22.8250   38.9560 O.3    80  THR80      -0.2211
     92  CG2        7.6680   22.5950   38.7180 C.3    80  THR80       0.0375
     93  N         13.7300   24.0100   55.5540 N.3   105  GLU105     -0.1231
     94  CA        12.3790   23.4730   55.5470 C.3   105  GLU105      0.1699
     95  C         11.5970   23.9520   54.3280 C.2   105  GLU105      0.2592
     96  O         10.7340   23.2380   53.8260 O.2   105  GLU105     -0.2718
     97  CB        11.6450   23.8490   56.8420 C.3   105  GLU105      0.0402
     98  CG        12.1860   23.1090   58.0740 C.3   105  GLU105      0.1161
     99  CD        11.5320   23.5490   59.3740 C.2   105  GLU105      0.3649
    100  OE1       11.7090   24.7220   59.7770 O.co2 105  GLU105     -0.2457
    101  OE2       10.8360   22.7200   59.9970 O.co2 105  GLU105     -0.2457
    102  N         11.9060   25.1550   53.8460 N.am  106  GLN106     -0.1979
    103  CA        11.2140   25.6860   52.6760 C.3   106  GLN106      0.1601
    104  C         11.8180   25.0320   51.4300 C.2   106  GLN106      0.2287
    105  O         11.1010   24.5180   50.5750 O.2   106  GLN106     -0.2864
    106  CB        11.3960   27.2080   52.5680 C.3   106  GLN106      0.0394
    107  CG        11.2960   27.9560   53.8800 C.3   106  GLN106      0.0908
    108  CD         9.9690   27.7710   54.5870 C.2   106  GLN106      0.2608
    109  OE1        9.9180   27.6950   55.8210 O.2   106  GLN106     -0.2717
    110  NE2        8.8850   27.7240   53.8200 N.am  106  GLN106     -0.0878
    111  N         10.8840   21.3620   50.7090 N.3   109  TRP109     -0.1241
    112  CA         9.4850   21.2360   50.3070 C.3   109  TRP109      0.1605
    113  C          9.3960   21.6100   48.8280 C.2   109  TRP109      0.2264
    114  O          8.7060   20.9600   48.0410 O.2   109  TRP109     -0.2867
    115  CB         8.6190   22.1940   51.1170 C.3   109  TRP109      0.0550
    116  CG         7.1630   21.8590   51.1070 C.ar  109  TRP109      0.0003
    117  CD1        6.3410   21.7560   50.0160 C.ar  109  TRP109      0.0946
    118  CD2        6.3420   21.6230   52.2550 C.ar  109  TRP109      0.0152
    119  NE1        5.0570   21.4740   50.4220 N.ar  109  TRP109     -0.2442
    120  CE2        5.0300   21.3860   51.7910 C.ar  109  TRP109      0.0810
    121  CE3        6.5890   21.5880   53.6350 C.ar  109  TRP109      0.0012
    122  CZ2        3.9650   21.1190   52.6540 C.ar  109  TRP109      0.0191
    123  CZ3        5.5300   21.3240   54.5010 C.ar  109  TRP109      0.0001
    124  CH2        4.2310   21.0930   54.0040 C.ar  109  TRP109      0.0015
    125  N         10.5310   18.9930   46.7840 N.3   112  GLY112     -0.1210
    126  CA         9.5530   17.9230   46.8010 C.3   112  GLY112      0.1956
    127  C          8.5000   18.1270   45.7170 C.2   112  GLY112      0.2611
    128  O          8.1110   17.1730   45.0400 O.2   112  GLY112     -0.2717
    129  N          8.0280   19.3610   45.5550 N.am  113  ASN113     -0.1974
    130  CA         7.0310   19.6510   44.5250 C.3   113  ASN113      0.1688
    131  C          7.6290   19.5940   43.1280 C.2   113  ASN113      0.2292
    132  O          6.9650   19.1570   42.1820 O.2   113  ASN113     -0.2864
    133  CB         6.3770   21.0260   44.7230 C.3   113  ASN113      0.1181
    134  CG         5.4730   21.0750   45.9400 C.2   113  ASN113      0.2629
    135  OD1        4.8440   20.0830   46.2910 O.2   113  ASN113     -0.2716
    136  ND2        5.3740   22.2450   46.5640 N.am  113  ASN113     -0.0877
    137  N          8.2710   16.0410   42.2710 N.3   116  GLY116     -0.1210
    138  CA         6.9950   15.3630   42.1690 C.3   116  GLY116      0.1956
    139  C          6.1680   15.7760   40.9690 C.2   116  GLY116      0.2611
    140  O          5.0840   15.2400   40.7470 O.2   116  GLY116     -0.2717
    141  N          6.6760   16.7220   40.1850 N.am  117  ASP117     -0.1973
    142  CA         5.9440   17.1980   39.0220 C.3   117  ASP117      0.1709
    143  C          5.9080   16.1630   37.9110 C.2   117  ASP117      0.2293
    144  O          4.8490   15.8460   37.3910 O.2   117  ASP117     -0.2864
    145  CB         6.5660   18.4790   38.4750 C.3   117  ASP117      0.1436
    146  CG         5.7350   19.0930   37.3660 C.2   117  ASP117      0.3671
    147  OD1        4.6330   19.6020   37.6640 O.co2 117  ASP117     -0.2456
    148  OD2        6.1700   19.0470   36.1980 O.co2 117  ASP117     -0.2456
    149  N         10.2970   14.8580   57.9960 N.3   147  ARG147     -0.1231
    150  CA         9.0340   14.4730   57.3620 C.3   147  ARG147      0.1694
    151  C          9.0040   14.9430   55.9110 C.2   147  ARG147      0.2592
    152  O          8.7460   14.1580   55.0040 O.2   147  ARG147     -0.2718
    153  CB         7.8460   15.0860   58.1090 C.3   147  ARG147      0.0321
    154  CG         7.5810   14.4570   59.4770 C.3   147  ARG147      0.0489
    155  CD         6.7290   15.3610   60.3480 C.3   147  ARG147      0.2205
    156  NE         6.3680   14.7150   61.6040 N.pl3 147  ARG147     -0.0865
    157  CZ         6.1370   15.3660   62.7350 C.cat 147  ARG147      0.5346
    158  NH1        6.2350   16.6870   62.7750 N.pl3 147  ARG147      0.1354
    159  NH2        5.8000   14.6950   63.8260 N.pl3 147  ARG147      0.1354
    160  N          9.2720   16.2270   55.7000 N.am  148  THR148     -0.1953
    161  CA         9.2630   16.7890   54.3580 C.3   148  THR148      0.1897
    162  C         10.3460   16.1550   53.4940 C.2   148  THR148      0.2313
    163  O         10.1150   15.8520   52.3250 O.2   148  THR148     -0.2863
    164  CB         9.4700   18.3130   54.3900 C.3   148  THR148      0.1794
    165  OG1        8.5010   18.9060   55.2620 O.3   148  THR148     -0.2208
    166  CG2        9.2850   18.9030   52.9900 C.3   148  THR148      0.0378
    167  N          9.3400   12.6910   52.2950 N.3   151  TRP151     -0.1241
    168  CA         8.3780   12.8610   51.2180 C.3   151  TRP151      0.1605
    169  C          9.1080   13.2300   49.9290 C.2   151  TRP151      0.2264
    170  O          8.8900   12.6140   48.8850 O.2   151  TRP151     -0.2867
    171  CB         7.3900   13.9630   51.5920 C.3   151  TRP151      0.0550
    172  CG         6.6190   14.4950   50.4420 C.ar  151  TRP151      0.0003
    173  CD1        5.7610   13.8080   49.6380 C.ar  151  TRP151      0.0946
    174  CD2        6.6430   15.8420   49.9540 C.ar  151  TRP151      0.0152
    175  NE1        5.2470   14.6460   48.6730 N.ar  151  TRP151     -0.2442
    176  CE2        5.7720   15.8980   48.8460 C.ar  151  TRP151      0.0810
    177  CE3        7.3170   17.0020   50.3470 C.ar  151  TRP151      0.0012
    178  CZ2        5.5560   17.0790   48.1230 C.ar  151  TRP151      0.0191
    179  CZ3        7.1020   18.1800   49.6260 C.ar  151  TRP151      0.0001
    180  CH2        6.2250   18.2060   48.5290 C.ar  151  TRP151      0.0015
    181  N         10.8880   10.4010   48.5030 N.3   154  SER154     -0.1202
    182  CA        10.0300    9.4310   47.8180 C.3   154  SER154      0.2020
    183  C          9.6910    9.8900   46.3990 C.2   154  SER154      0.2618
    184  O          9.6170    9.0660   45.4870 O.2   154  SER154     -0.2717
    185  CB         8.7420    9.1510   48.6050 C.3   154  SER154      0.2103
    186  OG         7.8960   10.2780   48.6690 O.3   154  SER154     -0.2182
    187  N          9.4950   11.1910   46.1950 N.am  155  ASN155     -0.1974
    188  CA         9.2030   11.6660   44.8430 C.3   155  ASN155      0.1688
    189  C         10.4140   11.4530   43.9370 C.2   155  ASN155      0.2292
    190  O         10.2670   11.2980   42.7250 O.2   155  ASN155     -0.2864
    191  CB         8.8160   13.1500   44.8200 C.3   155  ASN155      0.1181
    192  CG         7.4210   13.3980   45.3420 C.2   155  ASN155      0.2629
    193  OD1        6.5540   12.5360   45.2520 O.2   155  ASN155     -0.2716
    194  ND2        7.1850   14.6000   45.8520 N.am  155  ASN155     -0.0877
    195  N         10.1010    7.7730   42.9420 N.3   158  ARG158     -0.1245
    196  CA         8.8640    7.4590   42.2410 C.3   158  ARG158      0.1563
    197  C          8.9690    7.5490   40.7180 C.2   158  ARG158      0.2260
    198  O          9.7270    8.3520   40.1860 O.2   158  ARG158     -0.2867
    199  CB         7.7620    8.3870   42.7550 C.3   158  ARG158      0.0307
    200  CG         6.3490    7.9320   42.4500 C.3   158  ARG158      0.0489
    201  CD         5.3600    8.7620   43.2490 C.3   158  ARG158      0.2205
    202  NE         3.9860    8.2910   43.1050 N.pl3 158  ARG158     -0.0865
    203  CZ         2.9530    8.8200   43.7530 C.cat 158  ARG158      0.5346
    204  NH1        3.1490    9.8350   44.5870 N.pl3 158  ARG158      0.1354
    205  NH2        1.7280    8.3380   43.5690 N.pl3 158  ARG158      0.1354
    206  N          5.2030    6.4820   56.8670 N.3   189  VAL189     -0.1231
    207  CA         4.3660    6.3170   55.6870 C.3   189  VAL189      0.1692
    208  C          5.1380    6.6600   54.4180 C.2   189  VAL189      0.2592
    209  O          5.1720    5.8780   53.4690 O.2   189  VAL189     -0.2718
    210  CB         3.1190    7.2110   55.7460 C.3   189  VAL189      0.0266
    211  CG1        2.3810    7.1580   54.4120 C.3   189  VAL189      0.0020
    212  CG2        2.1980    6.7380   56.8540 C.3   189  VAL189      0.0020
    213  N          5.7700    7.8270   54.4080 N.am  190  ASP190     -0.1974
    214  CA         6.5250    8.2340   53.2330 C.3   190  ASP190      0.1709
    215  C          7.7800    7.4120   52.9920 C.2   190  ASP190      0.2293
    216  O          8.1860    7.2220   51.8460 O.2   190  ASP190     -0.2864
    217  CB         6.8300    9.7280   53.3030 C.3   190  ASP190      0.1436
    218  CG         5.5750   10.5630   53.1640 C.2   190  ASP190      0.3671
    219  OD1        4.7570   10.2200   52.2770 O.co2 190  ASP190     -0.2456
    220  OD2        5.4000   11.5470   53.9120 O.co2 190  ASP190     -0.2456
    221  N          6.5410    4.3730   51.2500 N.3   193  TRP193     -0.1241
    222  CA         6.2130    4.6390   49.8590 C.3   193  TRP193      0.1605
    223  C          7.5190    4.6860   49.0640 C.2   193  TRP193      0.2264
    224  O          7.6480    4.0410   48.0260 O.2   193  TRP193     -0.2867
    225  CB         5.4450    5.9580   49.7090 C.3   193  TRP193      0.0550
    226  CG         3.9930    5.7980   50.0150 C.ar  193  TRP193      0.0003
    227  CD1        3.3000    6.3360   51.0660 C.ar  193  TRP193      0.0946
    228  CD2        3.0650    4.9700   49.3030 C.ar  193  TRP193      0.0152
    229  NE1        1.9960    5.8890   51.0490 N.ar  193  TRP193     -0.2442
    230  CE2        1.8280    5.0510   49.9780 C.ar  193  TRP193      0.0810
    231  CE3        3.1610    4.1670   48.1570 C.ar  193  TRP193      0.0012
    232  CZ2        0.6940    4.3550   49.5450 C.ar  193  TRP193      0.0191
    233  CZ3        2.0370    3.4750   47.7290 C.ar  193  TRP193      0.0001
    234  CH2        0.8180    3.5760   48.4220 C.ar  193  TRP193      0.0015
    235  N          8.7070    2.2090   45.8610 N.3   197  TYR197     -0.1241
    236  CA         9.0890    2.7010   44.5400 C.3   197  TYR197      0.1605
    237  C         10.4280    2.0770   44.1280 C.2   197  TYR197      0.2264
    238  O         10.5870    1.6210   42.9980 O.2   197  TYR197     -0.2867
    239  CB         9.2080    4.2300   44.5590 C.3   197  TYR197      0.0534
    240  CG         7.9250    4.9500   44.9180 C.ar  197  TYR197     -0.0201
    241  CD1        7.9560    6.2210   45.4810 C.ar  197  TYR197     -0.0009
    242  CD2        6.6760    4.3590   44.6970 C.ar  197  TYR197     -0.0009
    243  CE1        6.7900    6.8880   45.8230 C.ar  197  TYR197      0.0417
    244  CE2        5.4980    5.0230   45.0360 C.ar  197  TYR197      0.0417
    245  CZ         5.5640    6.2840   45.6010 C.ar  197  TYR197      0.1957
    246  OH         4.4060    6.9320   45.9690 O.3   197  TYR197     -0.2866
@<TRIPOS>BOND
     1   148   146   ar
     2    88    89    2
     3    88    87    1
     4    86    87    1
     5   146   147   ar
     6   146   145    1
     7   144   143    2
     8    87    90    1
     9   143   142    1
    10    90    92    1
    11    90    91    1
    12   145   142    1
    13   142   141    1
    14    84    85    2
    15    84    83    1
    16   141   139   am
    17   198   197    2
    18    83    82    1
    19   197   196    1
    20   140   139    2
    21   139   138    1
    22    82    78   am
    23    74    73    2
    24   138   137    1
    25   132   131    2
    26    72    73    1
    27    72    75    1
    28    72    71    1
    29    38    37    2
    30   196   199    1
    31   196   195    1
    32   200   199    1
    33   200   201    1
    34    73    76   am
    35   190   189    2
    36    78    79    2
    37    78    77    1
    38   238   237    2
    39   202   201    1
    40   202   203    2
    41   131   130    1
    42    37    36    1
    43    76    77    1
    44   205   203    1
    45   203   204    1
    46    77    80    1
    47   189   188    1
    48    41    35    1
    49    41    40    1
    50    35    36    1
    51   237   236    1
    52    66    65    2
    53   130   133    1
    54   130   129    1
    55   236   239    1
    56   236   235    1
    57    36    39    1
    58   239   240    1
    59     8     6    1
    60   242   240   ar
    61   242   244   ar
    62   133   134    1
    63   191   188    1
    64   191   192    1
    65   188   187    1
    66    39    40    1
    67   240   241   ar
    68    65    64    1
    69    81    80    1
    70   244   245   ar
    71   128   127    2
    72   193   192    2
    73   192   194   am
    74   241   243   ar
    75   184   183    2
    76   129   127   am
    77   245   243   ar
    78   245   246    1
    79     7     6    1
    80   127   126    1
    81     6     5    1
    82    59    58    2
    83   134   135    2
    84   134   136   am
    85   187   183   am
    86   183   182    1
    87    64    63    1
    88    64    67    1
    89    58    63   am
    90    58    57    1
    91    56    57    1
    92   125   126    1
    93    57    60    1
    94    29    28    2
    95     5     2    1
    96    25    23    1
    97    67    68    1
    98    24    23    1
    99     2     1    1
   100     2     3    1
   101    23    22    2
   102   233   231   ar
   103   233   234   ar
   104    22    21    1
   105   182   181    1
   106   182   185    1
   107    28    27    1
   108    18    17    2
   109    21    20    1
   110     4     3    2
   111   224   223    2
   112   114   113    2
   113    34    32   ar
   114   178   180   ar
   115   178   176   ar
   116   231   228   ar
   117   234   232   ar
   118    60    62    1
   119    60    61    1
   120     3     9   am
   121   180   179   ar
   122   185   186    1
   123   175   176   ar
   124   175   173   ar
   125    68    69    2
   126    68    70   am
   127    19    20    1
   128    19    16    1
   129   113   112    1
   130   176   174   ar
   131   170   169    2
   132    17    16    1
   133    17    26   am
   134    45    44    2
   135   223   222    1
   136    27    26    1
   137    27    30    1
   138    32    31    1
   139    32    33   ar
   140   228   230   ar
   141   228   226   ar
   142    44    43    1
   143   232   230   ar
   144    16    15    1
   145   179   177   ar
   146   173   172   ar
   147    15    11   am
   148   225   222    1
   149   225   226    1
   150     9    10    1
   151    31    30    1
   152   222   221    1
   153   169   168    1
   154   174   177   ar
   155   174   172   ar
   156   230   229   ar
   157   226   227   ar
   158   117   119   ar
   159   117   116   ar
   160    42    43    1
   161   112   111    1
   162   112   115    1
   163   119   120   ar
   164   172   171    1
   165   105   104    2
   166    43    46    1
   167    10    11    1
   168    10    13    1
   169    11    12    2
   170   229   227   ar
   171   116   115    1
   172   116   118   ar
   173   168   171    1
   174   168   167    1
   175   104   103    1
   176   120   118   ar
   177   120   122   ar
   178   216   215    2
   179    46    47    1
   180    48    47   ar
   181    48    50   ar
   182    14    13    1
   183   118   121   ar
   184   219   218   ar
   185   163   162    2
   186    47    49   ar
   187   106   103    1
   188   106   107    1
   189   122   124   ar
   190   103   102    1
   191    50    51   ar
   192   166   164    1
   193   215   214    1
   194   218   217    1
   195   218   220   ar
   196   214   217    1
   197   214   213    1
   198   209   208    2
   199   162   161    1
   200   121   123   ar
   201   110   108   am
   202    96    95    2
   203    49    51   ar
   204    49    52   ar
   205   102    95   am
   206   107   108    1
   207    51    53   ar
   208   124   123   ar
   209    95    94    1
   210   161   164    1
   211   161   160    1
   212   164   165    1
   213   213   208   am
   214   211   210    1
   215   208   207    1
   216   108   109    2
   217    52    54   ar
   218   152   151    2
   219    53    55   ar
   220    94    93    1
   221    94    97    1
   222   207   210    1
   223   207   206    1
   224   160   151   am
   225   210   212    1
   226   151   150    1
   227    54    55   ar
   228    97    98    1
   229   150   149    1
   230   150   153    1
   231    98    99    1
   232   153   154    1
   233    99   100   ar
   234    99   101   ar
   235   154   155    1
   236   155   156    1
   237   156   157    2
   238   157   158    1
   239   157   159    1
