@<TRIPOS>MOLECULE
tmp/1ee4A01.pdb
 156 147 0 0 0
SMALL
GASTEIGER

@<TRIPOS>ATOM
      1  N          8.1090    4.6510   37.3000 N.3   160  LYS160     -0.1245
      2  CA         8.6210    3.3890   36.7690 C.3   160  LYS160      0.1561
      3  C          8.9550    3.5380   35.2850 C.2   160  LYS160      0.2260
      4  O          9.8710    2.9050   34.7640 O.2   160  LYS160     -0.2867
      5  CB         7.5680    2.2970   36.9770 C.3   160  LYS160      0.0271
      6  CG         8.0500    0.8670   36.7700 C.3   160  LYS160      0.0035
      7  CD         6.9590   -0.1250   37.1610 C.3   160  LYS160      0.0206
      8  CE         7.4590   -1.5560   37.1010 C.3   160  LYS160      0.1093
      9  NZ         6.4200   -2.5060   37.5800 N.3   160  LYS160     -0.1314
     10  N         10.1300   -1.4370   43.2750 N.3   200  ASP200     -0.1239
     11  CA         9.4060   -1.6500   42.0290 C.3   200  ASP200      0.1674
     12  C         10.3530   -1.4460   40.8530 C.2   200  ASP200      0.2266
     13  O         10.3830   -0.3820   40.2360 O.2   200  ASP200     -0.2867
     14  CB         8.2230   -0.6810   41.9410 C.3   200  ASP200      0.1410
     15  CG         7.3450   -0.9430   40.7320 C.2   200  ASP200      0.3668
     16  OD1        6.9480   -2.1090   40.5300 O.co2 200  ASP200     -0.2456
     17  OD2        7.0400    0.0150   39.9940 O.co2 200  ASP200     -0.2456
     18  N          2.6300   -2.8350   49.8190 N.3   235  ARG235     -0.1245
     19  CA         2.9930   -2.5960   48.4250 C.3   235  ARG235      0.1563
     20  C          4.4640   -2.9520   48.2090 C.2   235  ARG235      0.2260
     21  O          4.8120   -3.6290   47.2430 O.2   235  ARG235     -0.2867
     22  CB         2.7700   -1.1290   48.0590 C.3   235  ARG235      0.0307
     23  CG         3.2040   -0.7660   46.6400 C.3   235  ARG235      0.0489
     24  CD         2.3810   -1.5090   45.5960 C.3   235  ARG235      0.2205
     25  NE         0.9660   -1.1670   45.7060 N.pl3 235  ARG235     -0.0865
     26  CZ         0.4770    0.0550   45.5160 C.cat 235  ARG235      0.5346
     27  NH1        1.2900    1.0580   45.2060 N.pl3 235  ARG235      0.1354
     28  NH2       -0.8220    0.2820   45.6510 N.pl3 235  ARG235      0.1354
     29  N          5.9210   -5.8310   45.7910 N.3   239  ASN239     -0.1240
     30  CA         6.8950   -5.5740   44.7390 C.3   239  ASN239      0.1653
     31  C          8.1240   -6.4520   44.8960 C.2   239  ASN239      0.2266
     32  O          8.7280   -6.8710   43.9160 O.2   239  ASN239     -0.2867
     33  CB         7.3470   -4.1110   44.7320 C.3   239  ASN239      0.1155
     34  CG         6.2190   -3.1490   44.4440 C.2   239  ASN239      0.2627
     35  OD1        5.2870   -3.4700   43.7140 O.2   239  ASN239     -0.2716
     36  ND2        6.3210   -1.9430   44.9880 N.am  239  ASN239     -0.0877
     37  N          8.2810   -9.5370   46.1320 N.3   241  VAL241     -0.1231
     38  CA         7.9930  -10.9120   45.7450 C.3   241  VAL241      0.1692
     39  C          7.6810  -11.0800   44.2610 C.2   241  VAL241      0.2593
     40  O          7.2200  -12.1400   43.8260 O.2   241  VAL241     -0.2718
     41  CB         6.8520  -11.5230   46.6110 C.3   241  VAL241      0.0266
     42  CG1        7.3250  -11.6490   48.0610 C.3   241  VAL241      0.0020
     43  CG2        5.6150  -10.6570   46.5440 C.3   241  VAL241      0.0020
     44  N          7.9220  -10.0240   43.4870 N.am  242  THR242     -0.1939
     45  CA         7.7520  -10.0930   42.0420 C.3   242  THR242      0.2028
     46  C          9.1480  -10.4730   41.5600 C.2   242  THR242      0.2643
     47  O          9.3830  -10.6190   40.3670 O.2   242  THR242     -0.2714
     48  CB         7.3910   -8.7310   41.4030 C.3   242  THR242      0.1808
     49  OG1        8.4410   -7.7880   41.6610 O.3   242  THR242     -0.2208
     50  CG2        6.0720   -8.2040   41.9540 C.3   242  THR242      0.0379
     51  N         10.0710  -10.6060   42.5170 N.am  243  GLY243     -0.1939
     52  CA        11.4440  -10.9750   42.2120 C.3   243  GLY243      0.2014
     53  C         11.5630  -12.4720   41.9930 C.2   243  GLY243      0.2639
     54  O         10.5500  -13.1680   41.9350 O.2   243  GLY243     -0.2714
     55  N         12.7860  -12.9840   41.8810 N.am  244  ASN244     -0.1958
     56  CA        12.9630  -14.4130   41.6500 C.3   244  ASN244      0.1819
     57  C         12.6290  -15.2410   42.8810 C.2   244  ASN244      0.2621
     58  O         12.3470  -14.6920   43.9510 O.2   244  ASN244     -0.2715
     59  CB        14.3900  -14.7250   41.1710 C.3   244  ASN244      0.1195
     60  CG        15.4530  -14.2560   42.1360 C.2   244  ASN244      0.2630
     61  OD1       15.4340  -14.6030   43.3140 O.2   244  ASN244     -0.2716
     62  ND2       16.4020  -13.4790   41.6340 N.am  244  ASN244     -0.0877
     63  N         12.6520  -16.5650   42.7230 N.am  245  ASP245     -0.1971
     64  CA        12.3290  -17.4640   43.8230 C.3   245  ASP245      0.1709
     65  C         13.2070  -17.2270   45.0450 C.2   245  ASP245      0.2293
     66  O         12.7390  -17.3110   46.1790 O.2   245  ASP245     -0.2864
     67  CB        12.4570  -18.9300   43.3910 C.3   245  ASP245      0.1436
     68  CG        11.5530  -19.2810   42.2240 C.2   245  ASP245      0.3671
     69  OD1       10.3550  -18.9240   42.2510 O.co2 245  ASP245     -0.2456
     70  OD2       12.0430  -19.9400   41.2870 O.co2 245  ASP245     -0.2456
     71  N         12.1680  -14.0000   46.7200 N.3   248  THR248     -0.1218
     72  CA        10.8500  -14.2470   47.3020 C.3   248  THR248      0.1862
     73  C         10.9750  -15.0520   48.5880 C.2   248  THR248      0.2287
     74  O         10.2390  -14.8230   49.5460 O.2   248  THR248     -0.2866
     75  CB         9.9210  -15.0070   46.3170 C.3   248  THR248      0.1770
     76  OG1        9.6870  -14.1990   45.1570 O.3   248  THR248     -0.2211
     77  CG2        8.5870  -15.3230   46.9730 C.3   248  THR248      0.0375
     78  N         -2.8740  -10.2490   46.0330 N.3   277  TRP277     -0.1241
     79  CA        -1.9470   -9.9560   44.9540 C.3   277  TRP277      0.1605
     80  C         -0.5700  -10.4360   45.3660 C.2   277  TRP277      0.2264
     81  O          0.1300  -11.0880   44.5940 O.2   277  TRP277     -0.2867
     82  CB        -1.9020   -8.4480   44.6630 C.3   277  TRP277      0.0550
     83  CG        -0.7670   -8.0710   43.7530 C.ar  277  TRP277      0.0003
     84  CD1       -0.5500   -8.5200   42.4850 C.ar  277  TRP277      0.0946
     85  CD2        0.3280   -7.1980   44.0620 C.ar  277  TRP277      0.0152
     86  NE1        0.6180   -7.9890   41.9850 N.ar  277  TRP277     -0.2442
     87  CE2        1.1780   -7.1730   42.9360 C.ar  277  TRP277      0.0810
     88  CE3        0.6790   -6.4400   45.1870 C.ar  277  TRP277      0.0012
     89  CZ2        2.3500   -6.4180   42.8930 C.ar  277  TRP277      0.0191
     90  CZ3        1.8480   -5.6870   45.1460 C.ar  277  TRP277      0.0001
     91  CH2        2.6690   -5.6820   44.0070 C.ar  277  TRP277      0.0015
     92  N         -0.4180  -14.1420   45.3900 N.3   280  SER280     -0.1202
     93  CA        -0.3750  -14.6680   44.0290 C.3   280  SER280      0.2020
     94  C          1.0440  -14.7090   43.4720 C.2   280  SER280      0.2618
     95  O          1.3850  -15.6170   42.7180 O.2   280  SER280     -0.2717
     96  CB        -1.2550  -13.8480   43.0850 C.3   280  SER280      0.2103
     97  OG        -0.6330  -12.6260   42.7280 O.3   280  SER280     -0.2182
     98  N          1.8730  -13.7340   43.8290 N.am  281  ASN281     -0.1974
     99  CA         3.2410  -13.7410   43.3270 C.3   281  ASN281      0.1688
    100  C          4.1380  -14.7090   44.0830 C.2   281  ASN281      0.2292
    101  O          5.2500  -15.0100   43.6530 O.2   281  ASN281     -0.2864
    102  CB         3.8320  -12.3310   43.3120 C.3   281  ASN281      0.1181
    103  CG         3.2160  -11.4690   42.2250 C.2   281  ASN281      0.2629
    104  OD1        3.0500  -11.9210   41.0910 O.2   281  ASN281     -0.2716
    105  ND2        2.8910  -10.2260   42.5550 N.am  281  ASN281     -0.0877
    106  N          3.2930  -18.0910   42.6130 N.3   284  ALA284     -0.1231
    107  CA         3.8050  -18.0880   41.2520 C.3   284  ALA284      0.1694
    108  C          5.2560  -18.5630   41.3280 C.2   284  ALA284      0.2592
    109  O          5.9420  -18.6440   40.3170 O.2   284  ALA284     -0.2718
    110  CB         3.7540  -16.6840   40.6630 C.3   284  ALA284      0.0304
    111  N          5.7100  -18.8660   42.5460 N.am  285  GLY285     -0.1957
    112  CA         7.0700  -19.3230   42.7590 C.3   285  GLY285      0.1869
    113  C          7.2480  -20.8130   42.5350 C.2   285  GLY285      0.2309
    114  O          6.4810  -21.4280   41.7950 O.2   285  GLY285     -0.2863
    115  N         -7.8110  -11.1690   42.3550 N.3   316  GLU316     -0.1245
    116  CA        -6.5010  -11.3850   42.9460 C.3   316  GLU316      0.1567
    117  C         -6.4390  -12.7670   43.6040 C.2   316  GLU316      0.2260
    118  O         -5.4330  -13.4700   43.4930 O.2   316  GLU316     -0.2867
    119  CB        -6.2230  -10.2770   43.9600 C.3   316  GLU316      0.0388
    120  CG        -4.8930   -9.5930   43.7700 C.3   316  GLU316      0.1160
    121  CD        -4.6800   -9.1080   42.3450 C.2   316  GLU316      0.3649
    122  OE1       -5.5040   -8.3180   41.8470 O.co2 316  GLU316     -0.2457
    123  OE2       -3.6830   -9.5170   41.7210 O.co2 316  GLU316     -0.2457
    124  N         -5.9150  -15.2880   40.9230 N.3   319  TRP319     -0.1241
    125  CA        -4.5370  -15.4130   40.4770 C.3   319  TRP319      0.1605
    126  C         -3.7480  -16.3060   41.4320 C.2   319  TRP319      0.2264
    127  O         -3.0310  -17.2060   40.9930 O.2   319  TRP319     -0.2867
    128  CB        -3.8600  -14.0400   40.3770 C.3   319  TRP319      0.0550
    129  CG        -4.0810  -13.3350   39.0600 C.ar  319  TRP319      0.0003
    130  CD1       -4.9790  -12.3390   38.7870 C.ar  319  TRP319      0.0946
    131  CD2       -3.3700  -13.5770   37.8420 C.ar  319  TRP319      0.0152
    132  NE1       -4.8650  -11.9440   37.4720 N.ar  319  TRP319     -0.2442
    133  CE2       -3.8840  -12.6910   36.8700 C.ar  319  TRP319      0.0810
    134  CE3       -2.3440  -14.4610   37.4760 C.ar  319  TRP319      0.0012
    135  CZ2       -3.4060  -12.6600   35.5560 C.ar  319  TRP319      0.0191
    136  CZ3       -1.8690  -14.4300   36.1690 C.ar  319  TRP319      0.0001
    137  CH2       -2.4010  -13.5340   35.2260 C.ar  319  TRP319      0.0015
    138  N         -2.1960  -19.7160   40.1710 N.3   323  ASN323     -0.1240
    139  CA        -0.7500  -19.9110   40.0890 C.3   323  ASN323      0.1653
    140  C         -0.3850  -21.1200   40.9250 C.2   323  ASN323      0.2266
    141  O          0.5070  -21.8900   40.5710 O.2   323  ASN323     -0.2867
    142  CB         0.0330  -18.6980   40.6100 C.3   323  ASN323      0.1155
    143  CG        -0.1760  -17.4560   39.7720 C.2   323  ASN323      0.2627
    144  OD1       -0.4460  -17.5380   38.5700 O.2   323  ASN323     -0.2716
    145  ND2       -0.0120  -16.2910   40.3950 N.am  323  ASN323     -0.0877
    146  N         -9.0180  -11.4080   31.1070 N.3   357  ARG357     -0.1245
    147  CA        -7.7360  -11.8060   31.6830 C.3   357  ARG357      0.1563
    148  C         -7.9860  -12.7980   32.8180 C.2   357  ARG357      0.2260
    149  O         -7.2250  -13.7460   33.0080 O.2   357  ARG357     -0.2867
    150  CB        -6.9790  -10.5850   32.2200 C.3   357  ARG357      0.0307
    151  CG        -5.5440  -10.9320   32.6310 C.3   357  ARG357      0.0489
    152  CD        -4.8470   -9.8650   33.4200 C.3   357  ARG357      0.2205
    153  NE        -5.5870   -9.4510   34.5990 N.pl3 357  ARG357     -0.0865
    154  CZ        -6.2960   -8.3300   34.6800 C.cat 357  ARG357      0.5346
    155  NH1       -6.3170   -7.4320   33.6910 N.pl3 357  ARG357      0.1354
    156  NH2       -7.0920   -8.0960   35.7280 N.pl3 357  ARG357      0.1354
@<TRIPOS>BOND
     1   146   147    1
     2   147   150    1
     3   147   148    1
     4   150   151    1
     5   151   152    1
     6   148   149    2
     7   152   153    1
     8   155   154    1
     9   153   154    2
    10   154   156    1
    11     4     3    2
    12   137   135   ar
    13   137   136   ar
    14     3     2    1
    15   135   133   ar
    16   136   134   ar
    17     2     5    1
    18     2     1    1
    19     6     5    1
    20     6     7    1
    21   133   132   ar
    22   133   131   ar
    23     8     7    1
    24     8     9    1
    25   132   130   ar
    26   134   131   ar
    27   131   129   ar
    28   144   143    2
    29   130   129   ar
    30   129   128    1
    31   143   145   am
    32   143   142    1
    33    17    15   ar
    34   139   138    1
    35   139   142    1
    36   139   140    1
    37    13    12    2
    38   109   108    2
    39    47    46    2
    40   128   125    1
    41   125   124    1
    42   125   126    1
    43    16    15   ar
    44   141   140    2
    45   110   107    1
    46    15    14    1
    47    12    11    1
    48   127   126    2
    49   104   103    2
    50    59    56    1
    51    59    60    1
    52   107   108    1
    53   107   106    1
    54    70    68   ar
    55   108   111   am
    56    48    49    1
    57    48    50    1
    58    48    45    1
    59    46    45    1
    60    46    51   am
    61    62    60   am
    62    56    55    1
    63    56    57    1
    64   123   121   ar
    65   114   113    2
    66   122   121   ar
    67    55    53   am
    68    54    53    2
    69    14    11    1
    70    86    84   ar
    71    86    87   ar
    72    53    52    1
    73    11    10    1
    74    45    44    1
    75    60    61    2
    76    52    51    1
    77    68    69   ar
    78    68    67    1
    79   103   105   am
    80   103   102    1
    81   121   120    1
    82   115   116    1
    83    84    83   ar
    84   113   112    1
    85   111   112    1
    86    95    94    2
    87    63    57   am
    88    63    64    1
    89    97    96    1
    90    57    58    2
    91    89    87   ar
    92    89    91   ar
    93    87    85   ar
    94   116   117    1
    95   116   119    1
    96    96    93    1
    97   102    99    1
    98    99    98    1
    99    99   100    1
   100    67    64    1
   101    94    98   am
   102    94    93    1
   103    44    39   am
   104   118   117    2
   105   101   100    2
   106    35    34    2
   107    83    85   ar
   108    83    82    1
   109   120   119    1
   110    64    65    1
   111    40    39    2
   112    32    31    2
   113    91    90   ar
   114    93    92    1
   115    85    88   ar
   116    39    38    1
   117    34    33    1
   118    34    36   am
   119    81    80    2
   120    82    79    1
   121    33    30    1
   122    30    31    1
   123    30    29    1
   124    79    80    1
   125    79    78    1
   126    65    66    2
   127    90    88   ar
   128    76    75    1
   129    27    26    1
   130    26    28    1
   131    26    25    2
   132    24    25    1
   133    24    23    1
   134    38    37    1
   135    38    41    1
   136    75    77    1
   137    75    72    1
   138    43    41    1
   139    41    42    1
   140    23    22    1
   141    71    72    1
   142    21    20    2
   143    72    73    1
   144    22    19    1
   145    20    19    1
   146    19    18    1
   147    73    74    2
