@<TRIPOS>MOLECULE
tmp/1ee4D01.pdb
 174 164 0 0 0
SMALL
GASTEIGER

@<TRIPOS>ATOM
      1  N         25.9540   87.3420   95.7380 N.3   160  LYS160     -0.1231
      2  CA        26.4680   86.1310   95.1080 C.3   160  LYS160      0.1693
      3  C         26.8010   86.3070   93.6280 C.2   160  LYS160      0.2591
      4  O         27.4390   85.4500   93.0340 O.2   160  LYS160     -0.2718
      5  CB        25.4560   84.9930   95.2750 C.3   160  LYS160      0.0285
      6  CG        26.0680   83.6910   94.8320 C.3   160  LYS160      0.0035
      7  CD        25.0050   82.6620   95.0980 C.3   160  LYS160      0.0206
      8  CE        25.6320   81.4270   94.5470 C.3   160  LYS160      0.1093
      9  NZ        25.3480   80.3440   95.4470 N.3   160  LYS160     -0.1314
     10  N         26.3780   87.4140   93.0340 N.am  161  LYS161     -0.1980
     11  CA        26.6470   87.6380   91.6200 C.3   161  LYS161      0.1596
     12  C         27.0060   89.0730   91.2680 C.2   161  LYS161      0.2287
     13  O         26.1330   89.8660   90.9260 O.2   161  LYS161     -0.2864
     14  CB        25.4250   87.2150   90.7990 C.3   161  LYS161      0.0298
     15  CG        24.9320   85.8090   90.9130 C.3   161  LYS161      0.0038
     16  CD        23.6390   85.6920   90.1040 C.3   161  LYS161      0.0206
     17  CE        22.9020   84.4040   90.4440 C.3   161  LYS161      0.1093
     18  NZ        22.6590   84.2510   91.9300 N.3   161  LYS161     -0.1314
     19  N         27.9490   81.0490  101.9180 N.3   200  ASP200     -0.1239
     20  CA        27.2260   80.8150  100.6720 C.3   200  ASP200      0.1674
     21  C         28.1800   81.0290   99.5080 C.2   200  ASP200      0.2266
     22  O         28.2300   82.1010   98.9080 O.2   200  ASP200     -0.2867
     23  CB        26.0140   81.7460  100.5930 C.3   200  ASP200      0.1410
     24  CG        25.1970   81.5430   99.3290 C.2   200  ASP200      0.3668
     25  OD1       25.0290   80.3830   98.9010 O.co2 200  ASP200     -0.2456
     26  OD2       24.6980   82.5430   98.7730 O.co2 200  ASP200     -0.2456
     27  N         20.4480   79.7000  108.4490 N.3   235  ARG235     -0.1245
     28  CA        20.7990   79.9110  107.0500 C.3   235  ARG235      0.1563
     29  C         22.2690   79.5670  106.8420 C.2   235  ARG235      0.2260
     30  O         22.6350   78.9100  105.8710 O.2   235  ARG235     -0.2867
     31  CB        20.5710   81.3680  106.6490 C.3   235  ARG235      0.0307
     32  CG        21.0650   81.6970  105.2430 C.3   235  ARG235      0.0489
     33  CD        20.3100   80.8890  104.1910 C.3   235  ARG235      0.2205
     34  NE        18.8810   81.1810  104.2350 N.pl3 235  ARG235     -0.0865
     35  CZ        18.3540   82.3710  103.9660 C.cat 235  ARG235      0.5346
     36  NH1       19.1390   83.3820  103.6280 N.pl3 235  ARG235      0.1354
     37  NH2       17.0430   82.5570  104.0450 N.pl3 235  ARG235      0.1354
     38  N         23.8080   76.6990  104.5060 N.3   239  ASN239     -0.1240
     39  CA        24.7460   76.9390  103.4160 C.3   239  ASN239      0.1653
     40  C         25.9690   76.0410  103.5600 C.2   239  ASN239      0.2266
     41  O         26.5550   75.6210  102.5690 O.2   239  ASN239     -0.2867
     42  CB        25.1890   78.4110  103.3620 C.3   239  ASN239      0.1155
     43  CG        24.0370   79.3660  103.0630 C.2   239  ASN239      0.2627
     44  OD1       23.1220   79.0300  102.3170 O.2   239  ASN239     -0.2716
     45  ND2       24.1000   80.5780  103.6210 N.am  239  ASN239     -0.0877
     46  N         26.0750   72.9300  104.8570 N.3   241  VAL241     -0.1231
     47  CA        25.7870   71.5520  104.4760 C.3   241  VAL241      0.1692
     48  C         25.4870   71.4130  102.9880 C.2   241  VAL241      0.2593
     49  O         25.0450   70.3570  102.5270 O.2   241  VAL241     -0.2718
     50  CB        24.6260   70.9480  105.3060 C.3   241  VAL241      0.0266
     51  CG1       25.0460   70.8430  106.7700 C.3   241  VAL241      0.0020
     52  CG2       23.3750   71.7940  105.1600 C.3   241  VAL241      0.0020
     53  N         25.7070   72.4880  102.2360 N.am  242  THR242     -0.1939
     54  CA        25.5230   72.4310  100.7900 C.3   242  THR242      0.2028
     55  C         26.9020   72.0380  100.2740 C.2   242  THR242      0.2643
     56  O         27.0980   71.8190   99.0800 O.2   242  THR242     -0.2714
     57  CB        25.1610   73.7900  100.1690 C.3   242  THR242      0.1808
     58  OG1       26.2410   74.7090  100.3670 O.3   242  THR242     -0.2208
     59  CG2       23.8860   74.3390  100.7840 C.3   242  THR242      0.0379
     60  N         27.8600   71.9690  101.1990 N.am  243  GLY243     -0.1939
     61  CA        29.2180   71.5880  100.8500 C.3   243  GLY243      0.2014
     62  C         29.3350   70.0830  100.6640 C.2   243  GLY243      0.2639
     63  O         28.3320   69.3740  100.7080 O.2   243  GLY243     -0.2714
     64  N         30.5530   69.5850  100.4710 N.am  244  ASN244     -0.1958
     65  CA        30.7480   68.1550  100.2600 C.3   244  ASN244      0.1819
     66  C         30.4430   67.3130  101.4970 C.2   244  ASN244      0.2621
     67  O         30.1650   67.8440  102.5770 O.2   244  ASN244     -0.2715
     68  CB        32.1770   67.8750   99.7650 C.3   244  ASN244      0.1195
     69  CG        33.2460   68.3710  100.7250 C.2   244  ASN244      0.2630
     70  OD1       33.2900   67.9740  101.8890 O.2   244  ASN244     -0.2716
     71  ND2       34.1230   69.2390  100.2340 N.am  244  ASN244     -0.0877
     72  N         30.4810   65.9950  101.3270 N.am  245  ASP245     -0.1971
     73  CA        30.1970   65.0730  102.4160 C.3   245  ASP245      0.1709
     74  C         31.0630   65.2750  103.6520 C.2   245  ASP245      0.2293
     75  O         30.5660   65.1640  104.7720 O.2   245  ASP245     -0.2864
     76  CB        30.3020   63.6250  101.9230 C.3   245  ASP245      0.1436
     77  CG        29.2100   63.2680  100.9250 C.2   245  ASP245      0.3671
     78  OD1       29.0970   63.9570   99.8960 O.co2 245  ASP245     -0.2456
     79  OD2       28.4640   62.2970  101.1600 O.co2 245  ASP245     -0.2456
     80  N         29.9710   68.5210  105.3800 N.3   248  THR248     -0.1218
     81  CA        28.6640   68.2960  105.9800 C.3   248  THR248      0.1862
     82  C         28.8210   67.5010  107.2700 C.2   248  THR248      0.2287
     83  O         28.1150   67.7410  108.2450 O.2   248  THR248     -0.2866
     84  CB        27.7330   67.5170  105.0190 C.3   248  THR248      0.1770
     85  OG1       27.5280   68.2900  103.8310 O.3   248  THR248     -0.2211
     86  CG2       26.3910   67.2280  105.6800 C.3   248  THR248      0.0375
     87  N         14.9220   72.2700  104.7490 N.3   277  TRP277     -0.1241
     88  CA        15.8400   72.5030  103.6400 C.3   277  TRP277      0.1605
     89  C         17.2330   72.0320  104.0560 C.2   277  TRP277      0.2264
     90  O         17.9200   71.3320  103.3070 O.2   277  TRP277     -0.2867
     91  CB        15.8680   73.9940  103.2860 C.3   277  TRP277      0.0550
     92  CG        17.0410   74.3770  102.4450 C.ar  277  TRP277      0.0003
     93  CD1       17.3340   73.9280  101.1890 C.ar  277  TRP277      0.0946
     94  CD2       18.1160   75.2410  102.8250 C.ar  277  TRP277      0.0152
     95  NE1       18.5310   74.4550  100.7660 N.ar  277  TRP277     -0.2442
     96  CE2       19.0350   75.2660  101.7500 C.ar  277  TRP277      0.0810
     97  CE3       18.4000   75.9940  103.9720 C.ar  277  TRP277      0.0012
     98  CZ2       20.2150   76.0160  101.7860 C.ar  277  TRP277      0.0191
     99  CZ3       19.5770   76.7430  104.0090 C.ar  277  TRP277      0.0001
    100  CH2       20.4680   76.7480  102.9190 C.ar  277  TRP277      0.0015
    101  N         17.4400   68.2930  104.0700 N.3   280  SER280     -0.1202
    102  CA        17.4970   67.7190  102.7260 C.3   280  SER280      0.2020
    103  C         18.9290   67.7260  102.2060 C.2   280  SER280      0.2618
    104  O         19.3590   66.7800  101.5520 O.2   280  SER280     -0.2717
    105  CB        16.6030   68.4900  101.7480 C.3   280  SER280      0.2103
    106  OG        17.1370   69.7730  101.4680 O.3   280  SER280     -0.2182
    107  N         19.6720   68.7900  102.4910 N.am  281  ASN281     -0.1974
    108  CA        21.0480   68.8330  102.0320 C.3   281  ASN281      0.1688
    109  C         21.9000   67.8240  102.7720 C.2   281  ASN281      0.2292
    110  O         22.9570   67.4330  102.2930 O.2   281  ASN281     -0.2864
    111  CB        21.6280   70.2430  102.1320 C.3   281  ASN281      0.1181
    112  CG        21.1040   71.1410  101.0350 C.2   281  ASN281      0.2629
    113  OD1       21.0100   70.7160   99.8860 O.2   281  ASN281     -0.2716
    114  ND2       20.7770   72.3750  101.3660 N.am  281  ASN281     -0.0877
    115  N         21.0640   64.5150  101.2690 N.3   284  ALA284     -0.1231
    116  CA        21.5800   64.5050   99.9070 C.3   284  ALA284      0.1694
    117  C         23.0270   64.0170   99.9740 C.2   284  ALA284      0.2592
    118  O         23.7100   63.9440   98.9610 O.2   284  ALA284     -0.2718
    119  CB        21.5320   65.9010   99.3090 C.3   284  ALA284      0.0304
    120  N         23.4740   63.6900  101.1860 N.am  285  GLY285     -0.1957
    121  CA        24.8330   63.2250  101.4010 C.3   285  GLY285      0.1869
    122  C         24.9990   61.7260  101.2310 C.2   285  GLY285      0.2309
    123  O         24.2120   61.0910  100.5290 O.2   285  GLY285     -0.2863
    124  N         25.3830   59.4810  106.4430 N.3   289  GLN289     -0.1245
    125  CA        24.7010   60.7020  106.8380 C.3   289  GLN289      0.1566
    126  C         23.1880   60.5620  106.7500 C.2   289  GLN289      0.2260
    127  O         22.4610   61.1730  107.5270 O.2   289  GLN289     -0.2867
    128  CB        25.2170   61.8740  105.9980 C.3   289  GLN289      0.0367
    129  CG        26.7310   62.0330  106.1350 C.3   289  GLN289      0.0905
    130  CD        27.3030   63.1490  105.2940 C.2   289  GLN289      0.2608
    131  OE1       26.8850   63.3610  104.1560 O.2   289  GLN289     -0.2717
    132  NE2       28.2940   63.8470  105.8360 N.am  289  GLN289     -0.0878
    133  N         10.0780   71.3720  101.1150 N.3   316  GLU316     -0.1245
    134  CA        11.4170   71.0710  101.6150 C.3   316  GLU316      0.1567
    135  C         11.4560   69.7090  102.3030 C.2   316  GLU316      0.2260
    136  O         12.4370   68.9790  102.1880 O.2   316  GLU316     -0.2867
    137  CB        11.8910   72.1580  102.5790 C.3   316  GLU316      0.0388
    138  CG        12.0880   73.5210  101.9410 C.3   316  GLU316      0.1160
    139  CD        13.0390   73.4990  100.7550 C.2   316  GLU316      0.3649
    140  OE1       14.1680   72.9960  100.9000 O.co2 316  GLU316     -0.2457
    141  OE2       12.6640   74.0000   99.6740 O.co2 316  GLU316     -0.2457
    142  N         11.8870   67.2090   99.6920 N.3   319  TRP319     -0.1241
    143  CA        13.2720   67.1040   99.2580 C.3   319  TRP319      0.1605
    144  C         14.0580   66.2310  100.2300 C.2   319  TRP319      0.2264
    145  O         14.7960   65.3390   99.8200 O.2   319  TRP319     -0.2867
    146  CB        13.9320   68.4780   99.1850 C.3   319  TRP319      0.0550
    147  CG        13.7210   69.1870   97.8990 C.ar  319  TRP319      0.0003
    148  CD1       12.7960   70.1520   97.6250 C.ar  319  TRP319      0.0946
    149  CD2       14.4590   68.9840   96.6960 C.ar  319  TRP319      0.0152
    150  NE1       12.9140   70.5630   96.3210 N.ar  319  TRP319     -0.2442
    151  CE2       13.9300   69.8600   95.7260 C.ar  319  TRP319      0.0810
    152  CE3       15.5200   68.1400   96.3400 C.ar  319  TRP319      0.0012
    153  CZ2       14.4270   69.9220   94.4180 C.ar  319  TRP319      0.0191
    154  CZ3       16.0150   68.2010   95.0410 C.ar  319  TRP319      0.0001
    155  CH2       15.4660   69.0870   94.0960 C.ar  319  TRP319      0.0015
    156  N         15.5600   62.8840   98.8900 N.3   323  ASN323     -0.1240
    157  CA        17.0080   62.7000   98.8620 C.3   323  ASN323      0.1653
    158  C         17.4150   61.4790   99.6740 C.2   323  ASN323      0.2266
    159  O         18.3590   60.7720   99.3180 O.2   323  ASN323     -0.2867
    160  CB        17.7500   63.9240   99.4180 C.3   323  ASN323      0.1155
    161  CG        17.6290   65.1410   98.5220 C.2   323  ASN323      0.2627
    162  OD1       17.3360   65.0160   97.3390 O.2   323  ASN323     -0.2716
    163  ND2       17.8970   66.3270   99.0770 N.am  323  ASN323     -0.0877
    164  N          8.6120   71.1760   89.8460 N.3   357  ARG357     -0.1245
    165  CA         9.9020   70.7690   90.4050 C.3   357  ARG357      0.1563
    166  C          9.6700   69.7750   91.5390 C.2   357  ARG357      0.2260
    167  O         10.3530   68.7500   91.6350 O.2   357  ARG357     -0.2867
    168  CB        10.6680   71.9840   90.9400 C.3   357  ARG357      0.0307
    169  CG        12.1070   71.6310   91.3320 C.3   357  ARG357      0.0489
    170  CD        12.8160   72.6910   92.1190 C.3   357  ARG357      0.2205
    171  NE        12.0910   73.0990   93.3090 N.pl3 357  ARG357     -0.0865
    172  CZ        11.3860   74.2220   93.4060 C.cat 357  ARG357      0.5346
    173  NH1       11.3560   75.1270   92.4220 N.pl3 357  ARG357      0.1354
    174  NH2       10.6030   74.4520   94.4650 N.pl3 357  ARG357      0.1354
@<TRIPOS>BOND
     1   164   165    1
     2    16    17    1
     3    16    15    1
     4   165   168    1
     5   165   166    1
     6    17    18    1
     7    14    15    1
     8    14    11    1
     9    13    12    2
    10   168   169    1
    11    12    11    1
    12   169   170    1
    13   166   167    2
    14    11    10    1
    15   170   171    1
    16   173   172    1
    17    10     3   am
    18     4     3    2
    19   171   172    2
    20   172   174    1
    21     3     2    1
    22   155   153   ar
    23   155   154   ar
    24   153   151   ar
    25     8     7    1
    26     8     9    1
    27     6     7    1
    28     6     5    1
    29   154   152   ar
    30     2     5    1
    31     2     1    1
    32   151   150   ar
    33   151   149   ar
    34   150   148   ar
    35   152   149   ar
    36   149   147   ar
    37   162   161    2
    38   148   147   ar
    39   147   146    1
    40   161   163   am
    41   161   160    1
    42    26    24   ar
    43   157   156    1
    44   157   160    1
    45   157   158    1
    46    25    24   ar
    47    22    21    2
    48   118   117    2
    49    56    55    2
    50   146   143    1
    51   143   142    1
    52   143   144    1
    53   119   116    1
    54   159   158    2
    55    24    23    1
    56    21    20    1
    57   141   139   ar
    58    68    65    1
    59    68    69    1
    60   145   144    2
    61   113   112    2
    62    78    77   ar
    63   116   117    1
    64   116   115    1
    65   117   120   am
    66    57    58    1
    67    57    59    1
    68    57    54    1
    69    71    69   am
    70    65    64    1
    71    65    66    1
    72    55    54    1
    73    55    60   am
    74    64    62   am
    75   123   122    2
    76    23    20    1
    77    62    63    2
    78    62    61    1
    79    20    19    1
    80    69    70    2
    81   139   140   ar
    82   139   138    1
    83    95    93   ar
    84    95    96   ar
    85    54    53    1
    86    61    60    1
    87    77    79   ar
    88    77    76    1
    89   112   114   am
    90   112   111    1
    91   133   134    1
    92   120   121    1
    93    93    92   ar
    94   122   121    1
    95    72    66   am
    96    72    73    1
    97   106   105    1
    98    66    67    2
    99   104   103    2
   100   134   135    1
   101   134   137    1
   102   105   102    1
   103    96    98   ar
   104    96    94   ar
   105    98   100   ar
   106    76    73    1
   107   138   137    1
   108   108   111    1
   109   108   107    1
   110   108   109    1
   111   136   135    2
   112   103   107   am
   113   103   102    1
   114    53    48   am
   115   110   109    2
   116    44    43    2
   117    73    74    1
   118    92    94   ar
   119    92    91    1
   120    49    48    2
   121    41    40    2
   122   102   101    1
   123    94    97   ar
   124   100    99   ar
   125    48    47    1
   126    43    42    1
   127    43    45   am
   128    91    88    1
   129    90    89    2
   130    42    39    1
   131    39    40    1
   132    39    38    1
   133    36    35    1
   134    88    89    1
   135    88    87    1
   136    74    75    2
   137    85    84    1
   138    35    37    1
   139    35    34    2
   140    97    99   ar
   141   131   130    2
   142    33    34    1
   143    33    32    1
   144    47    46    1
   145    47    50    1
   146    84    86    1
   147    84    81    1
   148    52    50    1
   149    32    31    1
   150   130   132   am
   151   130   129    1
   152    50    51    1
   153    80    81    1
   154    30    29    2
   155    81    82    1
   156   128   129    1
   157   128   125    1
   158   124   125    1
   159    31    28    1
   160   126   125    1
   161   126   127    2
   162    29    28    1
   163    28    27    1
   164    82    83    2
