@<TRIPOS>MOLECULE
tmp/1ee9A00.pdb
 201 194 0 0 0
SMALL
GASTEIGER

@<TRIPOS>ATOM
      1  N          4.6200   23.6400  -20.2750 N.3    51  TYR51      -0.1241
      2  CA         5.0720   24.7040  -19.3830 C.3    51  TYR51       0.1605
      3  C          6.3890   25.2850  -19.8890 C.2    51  TYR51       0.2264
      4  O          6.5630   26.5030  -19.9300 O.2    51  TYR51      -0.2867
      5  CB         5.2510   24.1510  -17.9630 C.3    51  TYR51       0.0534
      6  CG         5.7050   25.1650  -16.9300 C.ar   51  TYR51      -0.0201
      7  CD1        4.7960   26.0280  -16.3180 C.ar   51  TYR51      -0.0009
      8  CD2        7.0440   25.2430  -16.5440 C.ar   51  TYR51      -0.0009
      9  CE1        5.2090   26.9440  -15.3450 C.ar   51  TYR51       0.0417
     10  CE2        7.4670   26.1550  -15.5740 C.ar   51  TYR51       0.0417
     11  CZ         6.5450   27.0010  -14.9780 C.ar   51  TYR51       0.1957
     12  OH         6.9620   27.8960  -14.0160 O.3    51  TYR51      -0.2866
     13  N          9.6710   16.9310  -12.5240 N.3    98  PRO98      -0.2116
     14  CA        10.6180   15.9890  -11.9220 C.3    98  PRO98       0.1372
     15  C         11.6390   15.4300  -12.9050 C.2    98  PRO98       0.2244
     16  O         11.2830   14.9310  -13.9710 O.2    98  PRO98      -0.2868
     17  CB         9.7000   14.8860  -11.4030 C.3    98  PRO98       0.0268
     18  CG         8.6620   14.8170  -12.4720 C.3    98  PRO98       0.0207
     19  CD         8.3620   16.2820  -12.7390 C.3    98  PRO98       0.0892
     20  N          7.8610   29.7380   -6.7600 N.3   149  THR149     -0.1218
     21  CA         6.5500   29.1450   -6.5070 C.3   149  THR149      0.1862
     22  C          5.8070   29.7890   -5.3310 C.2   149  THR149      0.2287
     23  O          4.7430   30.3850   -5.5240 O.2   149  THR149     -0.2866
     24  CB         6.6280   27.6150   -6.3350 C.3   149  THR149      0.1770
     25  OG1        7.4920   27.0670   -7.3390 O.3   149  THR149     -0.2211
     26  CG2        5.2420   26.9990   -6.4790 C.3   149  THR149      0.0375
     27  N         -2.3370   22.6410    1.7010 N.3   181  ILE181     -0.1231
     28  CA        -2.4080   21.1920    1.5490 C.3   181  ILE181      0.1692
     29  C         -1.1590   20.7110    0.8070 C.2   181  ILE181      0.2592
     30  O         -1.2280   20.3180   -0.3630 O.2   181  ILE181     -0.2718
     31  CB        -3.6710   20.7700    0.7570 C.3   181  ILE181      0.0266
     32  CG1       -4.8910   21.5770    1.2150 C.3   181  ILE181      0.0019
     33  CG2       -3.9360   19.2820    0.9450 C.3   181  ILE181      0.0020
     34  CD1       -5.3210   21.3090    2.6350 C.3   181  ILE181      0.0001
     35  N         -0.0160   20.7940    1.4840 N.am  182  ASN182     -0.1960
     36  CA         1.2770   20.3870    0.9340 C.3   182  ASN182      0.1819
     37  C          2.3770   20.8580    1.8810 C.2   182  ASN182      0.2621
     38  O          2.3570   21.9990    2.3490 O.2   182  ASN182     -0.2715
     39  CB         1.5020   21.0160   -0.4520 C.3   182  ASN182      0.1195
     40  CG         2.8020   20.5680   -1.1050 C.2   182  ASN182      0.2630
     41  OD1        3.8830   21.0460   -0.7590 O.2   182  ASN182     -0.2716
     42  ND2        2.6980   19.6730   -2.0750 N.am  182  ASN182     -0.0877
     43  N          3.3090   19.9680    2.2000 N.am  183  ARG183     -0.1963
     44  CA         4.4250   20.3160    3.0680 C.3   183  ARG183      0.1729
     45  C          5.7340   19.8680    2.4360 C.2   183  ARG183      0.2616
     46  O          6.6560   19.4360    3.1250 O.2   183  ARG183     -0.2715
     47  CB         4.2700   19.7190    4.4710 C.3   183  ARG183      0.0348
     48  CG         3.2340   20.4240    5.3470 C.3   183  ARG183      0.0492
     49  CD         3.7260   20.6240    6.7840 C.3   183  ARG183      0.2205
     50  NE         4.0360   19.3730    7.4760 N.pl3 183  ARG183     -0.0865
     51  CZ         3.1400   18.5990    8.0840 C.cat 183  ARG183      0.5346
     52  NH1        1.8550   18.9350    8.0980 N.pl3 183  ARG183      0.1354
     53  NH2        3.5290   17.4760    8.6720 N.pl3 183  ARG183      0.1354
     54  N          5.7960   19.9450    1.1110 N.am  184  SER184     -0.1950
     55  CA         7.0000   19.5790    0.3810 C.3   184  SER184      0.1924
     56  C          8.0540   20.6300    0.7020 C.2   184  SER184      0.2314
     57  O          7.7580   21.8290    0.7400 O.2   184  SER184     -0.2863
     58  CB         6.7320   19.5620   -1.1240 C.3   184  SER184      0.2116
     59  OG         5.6940   18.6560   -1.4510 O.3   184  SER184     -0.2180
     60  N         10.1810   21.8140   -1.0550 N.3   186  ILE186     -0.1231
     61  CA        10.3120   22.7230   -2.1910 C.3   186  ILE186      0.1692
     62  C          9.2950   23.8630   -2.2450 C.2   186  ILE186      0.2591
     63  O          9.6240   24.9670   -2.6870 O.2   186  ILE186     -0.2718
     64  CB        10.2650   21.9640   -3.5470 C.3   186  ILE186      0.0266
     65  CG1        9.3660   20.7240   -3.4400 C.3   186  ILE186      0.0019
     66  CG2       11.6740   21.6400   -4.0180 C.3   186  ILE186      0.0020
     67  CD1        9.2830   19.8880   -4.7020 C.3   186  ILE186      0.0001
     68  N          8.0640   23.6020   -1.8080 N.am  187  VAL187     -0.1980
     69  CA         7.0210   24.6250   -1.8500 C.3   187  VAL187      0.1595
     70  C          6.1590   24.7090   -0.5980 C.2   187  VAL187      0.2287
     71  O          6.1200   25.7440    0.0620 O.2   187  VAL187     -0.2864
     72  CB         6.0760   24.4190   -3.0570 C.3   187  VAL187      0.0276
     73  CG1        4.9910   25.4870   -3.0630 C.3   187  VAL187      0.0022
     74  CG2        6.8590   24.4520   -4.3610 C.3   187  VAL187      0.0022
     75  N         -1.0590   20.9540    5.9820 N.3   205  VAL205     -0.1231
     76  CA        -1.5230   19.5810    5.8120 C.3   205  VAL205      0.1692
     77  C         -0.4730   18.6900    5.1520 C.2   205  VAL205      0.2592
     78  O          0.2150   19.1050    4.2190 O.2   205  VAL205     -0.2718
     79  CB        -2.8280   19.5410    4.9930 C.3   205  VAL205      0.0266
     80  CG1       -3.2990   18.1070    4.8080 C.3   205  VAL205      0.0020
     81  CG2       -3.9000   20.3660    5.6910 C.3   205  VAL205      0.0020
     82  N         -0.3710   17.4630    5.6490 N.am  206  ASP206     -0.1960
     83  CA         0.5770   16.4710    5.1540 C.3   206  ASP206      0.1840
     84  C         -0.1560   15.1310    5.1800 C.2   206  ASP206      0.2621
     85  O         -1.2020   15.0110    5.8240 O.2   206  ASP206     -0.2715
     86  CB         1.7950   16.4260    6.0850 C.3   206  ASP206      0.1450
     87  CG         2.8790   15.4890    5.6010 C.2   206  ASP206      0.3671
     88  OD1        2.9260   14.3390    6.0830 O.co2 206  ASP206     -0.2456
     89  OD2        3.6990   15.9060    4.7560 O.co2 206  ASP206     -0.2456
     90  N          0.3760   14.1330    4.4800 N.am  207  VAL207     -0.1977
     91  CA        -0.2540   12.8150    4.4450 C.3   207  VAL207      0.1596
     92  C         -0.2810   12.1800    5.8350 C.2   207  VAL207      0.2287
     93  O         -1.2540   11.5230    6.2050 O.2   207  VAL207     -0.2864
     94  CB         0.4780   11.8530    3.4800 C.3   207  VAL207      0.0276
     95  CG1       -0.2200   10.5000    3.4480 C.3   207  VAL207      0.0022
     96  CG2        0.5230   12.4340    2.0900 C.3   207  VAL207      0.0022
     97  N         -3.1780   13.0340   10.8020 N.3   232  TYR232     -0.1241
     98  CA        -4.1010   13.2710    9.6960 C.3   232  TYR232      0.1605
     99  C         -5.4040   12.4820    9.7790 C.2   232  TYR232      0.2264
    100  O         -5.4310   11.2660    9.5820 O.2   232  TYR232     -0.2867
    101  CB        -3.4170   13.0020    8.3500 C.3   232  TYR232      0.0534
    102  CG        -4.3090   13.2090    7.1360 C.ar  232  TYR232     -0.0201
    103  CD1       -4.5600   12.1660    6.2400 C.ar  232  TYR232     -0.0009
    104  CD2       -4.8940   14.4480    6.8780 C.ar  232  TYR232     -0.0009
    105  CE1       -5.3700   12.3550    5.1180 C.ar  232  TYR232      0.0417
    106  CE2       -5.7020   14.6460    5.7610 C.ar  232  TYR232      0.0417
    107  CZ        -5.9360   13.5990    4.8850 C.ar  232  TYR232      0.1957
    108  OH        -6.7120   13.8140    3.7700 O.3   232  TYR232     -0.2866
    109  N         -9.1860   17.5580    8.9780 N.3   237  LEU237     -0.1245
    110  CA        -8.8000   18.4590    7.8970 C.3   237  LEU237      0.1561
    111  C         -9.9750   19.4020    7.6530 C.2   237  LEU237      0.2260
    112  O         -9.7980   20.6140    7.5160 O.2   237  LEU237     -0.2867
    113  CB        -8.5100   17.6540    6.6220 C.3   237  LEU237      0.0270
    114  CG        -7.5300   18.1810    5.5640 C.3   237  LEU237      0.0019
    115  CD1       -7.6030   17.2920    4.3320 C.3   237  LEU237      0.0001
    116  CD2       -7.8330   19.6170    5.1820 C.3   237  LEU237      0.0001
    117  N         -1.6550   21.7380   -3.3780 N.3   250  GLY250     -0.1210
    118  CA        -0.5910   21.3340   -4.2760 C.3   250  GLY250      0.1956
    119  C         -0.2760   19.8510   -4.3080 C.2   250  GLY250      0.2612
    120  O          0.8550   19.4590   -4.5940 O.2   250  GLY250     -0.2717
    121  N         -1.2710   19.0220   -4.0200 N.am  251  VAL251     -0.1966
    122  CA        -1.0850   17.5760   -4.0380 C.3   251  VAL251      0.1712
    123  C         -0.8960   17.1110   -5.4920 C.2   251  VAL251      0.2458
    124  O         -1.6540   17.5070   -6.3770 O.2   251  VAL251     -0.2730
    125  CB        -2.2910   16.8660   -3.3820 C.3   251  VAL251      0.0289
    126  CG1       -3.5780   17.3480   -4.0040 C.3   251  VAL251      0.0023
    127  CG2       -2.1620   15.3600   -3.5060 C.3   251  VAL251      0.0023
    128  N          0.1330   16.2830   -5.7520 N.am  252  PRO252     -0.2727
    129  CA         0.5070   15.7200   -7.0610 C.3   252  PRO252      0.1402
    130  C         -0.4960   14.7780   -7.7430 C.2   252  PRO252      0.2269
    131  O         -0.3670   14.4900   -8.9350 O.2   252  PRO252     -0.2865
    132  CB         1.8040   14.9660   -6.7470 C.3   252  PRO252      0.0296
    133  CG         2.3530   15.6900   -5.5710 C.3   252  PRO252      0.0237
    134  CD         1.1330   15.9190   -4.7340 C.3   252  PRO252      0.0939
    135  N         -7.1480   14.0380   -7.3370 N.3   256  TYR256     -0.1241
    136  CA        -7.4170   14.4760   -5.9750 C.3   256  TYR256      0.1605
    137  C         -8.6570   15.3580   -5.9800 C.2   256  TYR256      0.2264
    138  O         -8.9220   16.0750   -6.9440 O.2   256  TYR256     -0.2867
    139  CB        -6.2340   15.2300   -5.3640 C.3   256  TYR256      0.0534
    140  CG        -6.4470   15.5730   -3.9010 C.ar  256  TYR256     -0.0201
    141  CD1       -6.3080   14.6020   -2.9090 C.ar  256  TYR256     -0.0009
    142  CD2       -6.8160   16.8610   -3.5110 C.ar  256  TYR256     -0.0009
    143  CE1       -6.5340   14.9050   -1.5650 C.ar  256  TYR256      0.0417
    144  CE2       -7.0420   17.1740   -2.1710 C.ar  256  TYR256      0.0417
    145  CZ        -6.9020   16.1930   -1.2040 C.ar  256  TYR256      0.1957
    146  OH        -7.1360   16.5030    0.1180 O.3   256  TYR256     -0.2866
    147  N         -1.4780   25.1990   -6.8980 N.3   272  PHE272     -0.1227
    148  CA        -0.1950   25.3080   -7.5720 C.3   272  PHE272      0.1736
    149  C          0.2280   23.9800   -8.1810 C.2   272  PHE272      0.2595
    150  O          1.1650   23.9290   -8.9790 O.2   272  PHE272     -0.2718
    151  CB         0.8910   25.8630   -6.6350 C.3   272  PHE272      0.0547
    152  CG         1.2070   24.9820   -5.4570 C.ar  272  PHE272     -0.0202
    153  CD1        0.6200   25.2220   -4.2200 C.ar  272  PHE272     -0.0042
    154  CD2        2.1190   23.9370   -5.5740 C.ar  272  PHE272     -0.0042
    155  CE1        0.9370   24.4380   -3.1150 C.ar  272  PHE272     -0.0003
    156  CE2        2.4440   23.1470   -4.4770 C.ar  272  PHE272     -0.0003
    157  CZ         1.8520   23.3980   -3.2440 C.ar  272  PHE272     -0.0000
    158  N         -0.4680   22.9100   -7.8100 N.am  273  ALA273     -0.1966
    159  CA        -0.1580   21.5880   -8.3350 C.3   273  ALA273      0.1728
    160  C         -0.3940   21.6100   -9.8340 C.2   273  ALA273      0.2616
    161  O         -1.3510   22.2250  -10.3020 O.2   273  ALA273     -0.2715
    162  CB        -1.0420   20.5390   -7.6840 C.3   273  ALA273      0.0334
    163  N          0.4710   20.9350  -10.5860 N.am  274  CYS274     -0.1954
    164  CA         0.3330   20.8830  -12.0360 C.3   274  CYS274      0.1843
    165  C         -0.9490   20.1630  -12.4500 C.2   274  CYS274      0.2626
    166  O         -1.2900   20.1120  -13.6310 O.2   274  CYS274     -0.2714
    167  CB         1.5510   20.2070  -12.6720 C.3   274  CYS274      0.0997
    168  SG         3.0410   21.2270  -12.7010 S.3   274  CYS274     -0.0797
    169  N         -1.6590   19.6130  -11.4710 N.am  275  THR275     -0.1950
    170  CA        -2.9010   18.9080  -11.7320 C.3   275  THR275      0.1897
    171  C         -4.0670   19.6240  -11.0490 C.2   275  THR275      0.2313
    172  O         -3.8710   20.4690  -10.1690 O.2   275  THR275     -0.2863
    173  CB        -2.8210   17.4450  -11.2380 C.3   275  THR275      0.1794
    174  OG1       -4.0400   16.7650  -11.5540 O.3   275  THR275     -0.2208
    175  CG2       -2.5800   17.3900   -9.7350 C.3   275  THR275      0.0378
    176  N         -4.7900   27.5950  -11.4320 N.3   292  MET292     -0.1230
    177  CA        -3.3890   27.1890  -11.4040 C.3   292  MET292      0.1702
    178  C         -2.4200   28.3600  -11.4740 C.2   292  MET292      0.2593
    179  O         -2.6720   29.3460  -12.1670 O.2   292  MET292     -0.2718
    180  CB        -3.1090   26.1940  -12.5300 C.3   292  MET292      0.0401
    181  CG        -2.7310   24.8130  -12.0250 C.3   292  MET292      0.0596
    182  SD        -3.1310   23.5060  -13.1910 S.3   292  MET292     -0.1393
    183  CE        -4.7550   23.0080  -12.5870 C.3   292  MET292      0.0692
    184  N         -1.3100   28.2350  -10.7510 N.am  293  THR293     -0.1939
    185  CA        -0.2770   29.2640  -10.6900 C.3   293  THR293      0.2028
    186  C          0.4790   29.4520  -12.0060 C.2   293  THR293      0.2642
    187  O          0.4290   30.5250  -12.6040 O.2   293  THR293     -0.2714
    188  CB         0.7280   28.9530   -9.5670 C.3   293  THR293      0.1808
    189  OG1        1.2080   27.6070   -9.7120 O.3   293  THR293     -0.2208
    190  CG2        0.0620   29.1060   -8.2080 C.3   293  THR293      0.0379
    191  N          1.2250   28.4250  -12.4090 N.am  294  GLY294     -0.1954
    192  CA         1.9860   28.4460  -13.6520 C.3   294  GLY294      0.1869
    193  C          2.5320   29.7630  -14.1840 C.2   294  GLY294      0.2309
    194  O          3.6790   30.1180  -13.9180 O.2   294  GLY294     -0.2863
    195  N          4.0940   31.9820  -11.6450 N.3   297  THR297     -0.1218
    196  CA         5.3630   31.4150  -11.2020 C.3   297  THR297      0.1862
    197  C          6.4670   31.8520  -12.1630 C.2   297  THR297      0.2287
    198  O          7.5650   32.2270  -11.7430 O.2   297  THR297     -0.2866
    199  CB         5.3040   29.8740  -11.1970 C.3   297  THR297      0.1770
    200  OG1        4.1120   29.4360  -10.5280 O.3   297  THR297     -0.2211
    201  CG2        6.5210   29.2950  -10.4950 C.3   297  THR297      0.0375
@<TRIPOS>BOND
     1     1     2    1
     2     4     3    2
     3     3     2    1
     4     2     5    1
     5     5     6    1
     6     6     8   ar
     7     6     7   ar
     8     8    10   ar
     9     7     9   ar
    10    10    11   ar
    11     9    11   ar
    12    11    12    1
    13   193   194    2
    14   193   192    1
    15    16    15    2
    16   192   191    1
    17   166   165    2
    18   182   183    1
    19   182   181    1
    20    15    14    1
    21    19    13    1
    22    19    18    1
    23   168   167    1
    24   167   164    1
    25   187   186    2
    26   180   181    1
    27   180   177    1
    28    13    14    1
    29    18    17    1
    30   165   164    1
    31   165   169   am
    32   191   186   am
    33   179   178    2
    34   197   198    2
    35   197   196    1
    36   164   163    1
    37   186   185    1
    38    14    17    1
    39   170   169    1
    40   170   173    1
    41   170   171    1
    42   195   196    1
    43   174   173    1
    44   178   177    1
    45   178   184   am
    46   176   177    1
    47   173   175    1
    48   196   199    1
    49   199   200    1
    50   199   201    1
    51   171   172    2
    52   184   185    1
    53   185   188    1
    54   163   160   am
    55   161   160    2
    56   160   159    1
    57   189   188    1
    58   188   190    1
    59   150   149    2
    60   131   130    2
    61   159   158    1
    62   159   162    1
    63   149   158   am
    64   149   148    1
    65   130   129    1
    66   148   147    1
    67   148   151    1
    68    25    24    1
    69   135   136    1
    70   129   132    1
    71   129   128    1
    72   138   137    2
    73    20    21    1
    74   132   133    1
    75   151   152    1
    76    21    24    1
    77    21    22    1
    78    26    24    1
    79   124   123    2
    80   137   136    1
    81   136   139    1
    82   128   123   am
    83   128   134    1
    84   154   152   ar
    85   154   156   ar
    86   133   134    1
    87    23    22    2
    88   123   122    1
    89   152   153   ar
    90   139   140    1
    91    67    65    1
    92   120   119    2
    93   156   157   ar
    94    74    72    1
    95   119   118    1
    96   119   121   am
    97   118   117    1
    98   153   155   ar
    99   122   121    1
   100   122   125    1
   101    66    64    1
   102   126   125    1
   103   140   142   ar
   104   140   141   ar
   105    64    65    1
   106    64    61    1
   107   142   144   ar
   108   127   125    1
   109   157   155   ar
   110    73    72    1
   111    72    69    1
   112   141   143   ar
   113    63    62    2
   114    62    61    1
   115    62    68   am
   116    61    60    1
   117   144   145   ar
   118    42    40   am
   119    69    68    1
   120    69    70    1
   121   143   145   ar
   122    59    58    1
   123   145   146    1
   124    58    55    1
   125    40    41    2
   126    40    39    1
   127    70    71    2
   128    39    36    1
   129    30    29    2
   130    55    56    1
   131    55    54    1
   132    56    57    2
   133    31    33    1
   134    31    32    1
   135    31    28    1
   136    29    35   am
   137    29    28    1
   138    36    35    1
   139    36    37    1
   140    54    45   am
   141    32    34    1
   142    28    27    1
   143    37    43   am
   144    37    38    2
   145    96    94    1
   146    43    44    1
   147    45    44    1
   148    45    46    2
   149    44    47    1
   150    95    94    1
   151    94    91    1
   152   108   107    1
   153    78    77    2
   154   115   114    1
   155    91    90    1
   156    91    92    1
   157    47    48    1
   158    90    84   am
   159    89    87   ar
   160    80    79    1
   161   107   105   ar
   162   107   106   ar
   163    79    81    1
   164    79    76    1
   165   105   103   ar
   166    77    82   am
   167    77    76    1
   168    83    84    1
   169    83    82    1
   170    83    86    1
   171    84    85    2
   172   116   114    1
   173    48    49    1
   174   114   113    1
   175    87    88   ar
   176    87    86    1
   177   106   104   ar
   178    76    75    1
   179    92    93    2
   180   103   102   ar
   181   113   110    1
   182    49    50    1
   183   104   102   ar
   184   102   101    1
   185    50    51    2
   186   112   111    2
   187   111   110    1
   188   110   109    1
   189    51    52    1
   190    51    53    1
   191   101    98    1
   192   100    99    2
   193    98    99    1
   194    98    97    1
