@<TRIPOS>MOLECULE
tmp/1eeiE00.pdb
 106 105 0 0 0
SMALL
GASTEIGER

@<TRIPOS>ATOM
      1  N          8.3170    0.2030   22.6750 N.3    12  TYR12      -0.1227
      2  CA         8.0300   -0.7150   23.7680 C.3    12  TYR12       0.1736
      3  C          6.8060   -1.5970   23.5570 C.2    12  TYR12       0.2595
      4  O          5.9100   -1.2480   22.8010 O.2    12  TYR12      -0.2718
      5  CB         7.8340    0.1000   25.0440 C.3    12  TYR12       0.0548
      6  CG         9.0200    0.9450   25.4280 C.ar   12  TYR12      -0.0200
      7  CD1        9.2420    2.1930   24.8200 C.ar   12  TYR12      -0.0009
      8  CD2        9.9110    0.5150   26.4140 C.ar   12  TYR12      -0.0009
      9  CE1       10.3320    2.9740   25.1670 C.ar   12  TYR12       0.0417
     10  CE2       10.9970    1.2790   26.7690 C.ar   12  TYR12       0.0417
     11  CZ        11.1920    2.5080   26.1550 C.ar   12  TYR12       0.1957
     12  OH        12.2710    3.2440   26.5510 O.3    12  TYR12      -0.2866
     13  N          6.7800   -2.7340   24.2460 N.am   13  HIS13      -0.1961
     14  CA         5.6100   -3.6060   24.1430 C.3    13  HIS13       0.1787
     15  C          4.5900   -3.1270   25.1590 C.2    13  HIS13       0.2620
     16  O          4.9360   -2.4240   26.1130 O.2    13  HIS13      -0.2715
     17  CB         5.9700   -5.0800   24.3900 C.3    13  HIS13       0.0785
     18  CG         6.5470   -5.3550   25.7440 C.ar   13  HIS13       0.0821
     19  ND1        7.4490   -6.3820   25.9580 N.ar   13  HIS13      -0.2267
     20  CD2        6.3430   -4.7780   26.9470 C.ar   13  HIS13       0.1154
     21  CE1        7.7710   -6.4100   27.2410 C.ar   13  HIS13       0.1986
     22  NE2        7.1140   -5.4500   27.8640 N.ar   13  HIS13      -0.2212
     23  N          3.3360   -3.5120   24.9650 N.am   14  ASN14      -0.1972
     24  CA         2.2490   -3.1500   25.8760 C.3    14  ASN14       0.1688
     25  C          2.0040   -1.6430   26.0360 C.2    14  ASN14       0.2292
     26  O          1.4870   -1.1930   27.0680 O.2    14  ASN14      -0.2864
     27  CB         2.4840   -3.7830   27.2580 C.3    14  ASN14       0.1181
     28  CG         2.2920   -5.2970   27.2630 C.2    14  ASN14       0.2629
     29  OD1        3.0240   -6.0280   27.9540 O.2    14  ASN14      -0.2716
     30  ND2        1.2780   -5.7730   26.5380 N.am   14  ASN14      -0.0877
     31  N          3.4540    5.1720   37.9820 N.3    51  GLU51      -0.1245
     32  CA         3.6910    4.0160   38.8500 C.3    51  GLU51       0.1567
     33  C          4.6820    4.2020   39.9800 C.2    51  GLU51       0.2260
     34  O          5.6980    4.8900   39.8510 O.2    51  GLU51      -0.2867
     35  CB         4.1730    2.8200   38.0370 C.3    51  GLU51       0.0388
     36  CG         3.1730    2.2210   37.0870 C.3    51  GLU51       0.1160
     37  CD         3.7260    1.0000   36.3940 C.2    51  GLU51       0.3649
     38  OE1        4.5740    1.1710   35.4870 O.co2  51  GLU51      -0.2457
     39  OE2        3.3490   -0.1220   36.7760 O.co2  51  GLU51      -0.2457
     40  N          9.9640   -3.5980   38.6500 N.3    56  GLN56      -0.1231
     41  CA         9.8390   -3.4920   37.2070 C.3    56  GLN56       0.1698
     42  C         10.7170   -2.3770   36.6510 C.2    56  GLN56       0.2592
     43  O         11.0600   -2.3730   35.4640 O.2    56  GLN56      -0.2718
     44  CB         8.3670   -3.2540   36.8030 C.3    56  GLN56       0.0381
     45  CG         7.7600   -1.9060   37.2330 C.3    56  GLN56       0.0905
     46  CD         7.1710   -1.9190   38.6400 C.2    56  GLN56       0.2608
     47  OE1        7.6070   -2.6920   39.5020 O.2    56  GLN56      -0.2717
     48  NE2        6.1900   -1.0420   38.8910 N.am   56  GLN56      -0.0878
     49  N         11.0990   -1.4490   37.5220 N.am   57  HIS57      -0.1962
     50  CA        11.9100   -0.3130   37.1250 C.3    57  HIS57       0.1787
     51  C         13.4190   -0.5080   37.2950 C.2    57  HIS57       0.2620
     52  O         13.8860   -1.0600   38.3100 O.2    57  HIS57      -0.2715
     53  CB        11.4630    0.9340   37.9010 C.3    57  HIS57       0.0785
     54  CG        10.0070    1.2420   37.7650 C.ar   57  HIS57       0.0821
     55  ND1        9.1270    1.1740   38.8370 N.ar   57  HIS57      -0.2267
     56  CD2        9.2600    1.6220   36.7050 C.ar   57  HIS57       0.1154
     57  CE1        7.9130    1.4950   38.4310 C.ar   57  HIS57       0.1986
     58  NE2        7.9660    1.7720   37.1370 N.ar   57  HIS57      -0.2212
     59  N         14.1710   -0.0620   36.2840 N.am   58  ILE58      -0.1977
     60  CA        15.6320   -0.1060   36.2960 C.3    58  ILE58       0.1596
     61  C         16.0980    1.1640   37.0260 C.2    58  ILE58       0.2287
     62  O         15.3940    2.1790   37.0290 O.2    58  ILE58      -0.2864
     63  CB        16.2330   -0.1960   34.8640 C.3    58  ILE58       0.0276
     64  CG1       15.8890    1.0350   34.0280 C.3    58  ILE58       0.0022
     65  CG2       15.7130   -1.4270   34.1600 C.3    58  ILE58       0.0022
     66  CD1       16.4750    0.9820   32.6070 C.3    58  ILE58       0.0001
     67  N         15.5910    4.7950   35.8140 N.3    61  GLN61      -0.1245
     68  CA        14.2540    5.3320   35.8060 C.3    61  GLN61       0.1566
     69  C         13.7890    6.1170   37.0440 C.2    61  GLN61       0.2260
     70  O         12.8900    6.9460   36.9410 O.2    61  GLN61      -0.2867
     71  CB        13.2700    4.2060   35.4960 C.3    61  GLN61       0.0367
     72  CG        13.3150    3.7150   34.0650 C.3    61  GLN61       0.0905
     73  CD        12.3240    2.6060   33.8180 C.2    61  GLN61       0.2608
     74  OE1       12.5440    1.4620   34.2220 O.2    61  GLN61      -0.2717
     75  NE2       11.2170    2.9370   33.1690 N.am   61  GLN61      -0.0878
     76  N          1.6210    2.5240   29.4800 N.3    88  TRP88      -0.1241
     77  CA         1.6560    1.0730   29.4510 C.3    88  TRP88       0.1605
     78  C          0.1700    0.7360   29.6640 C.2    88  TRP88       0.2264
     79  O         -0.4950    1.3400   30.5220 O.2    88  TRP88      -0.2867
     80  CB         2.5490    0.5610   30.5870 C.3    88  TRP88       0.0550
     81  CG         4.0100    0.6380   30.2710 C.ar   88  TRP88       0.0003
     82  CD1        4.7290   -0.2020   29.4380 C.ar   88  TRP88       0.0946
     83  CD2        5.0400    1.5630   30.7770 C.ar   88  TRP88       0.0152
     84  NE1        6.0690    0.1380   29.4150 N.ar   88  TRP88      -0.2442
     85  CE2        6.2420    1.2240   30.2450 C.ar   88  TRP88       0.0810
     86  CE3        4.9100    2.6590   31.6770 C.ar   88  TRP88       0.0012
     87  CZ2        7.4320    1.9200   30.5480 C.ar   88  TRP88       0.0191
     88  CZ3        6.0960    3.3430   31.9710 C.ar   88  TRP88       0.0001
     89  CH2        7.3250    2.9740   31.4150 C.ar   88  TRP88       0.0015
     90  N         -1.0920   -2.3660   30.2120 N.3    90  ASN90      -0.1225
     91  CA        -1.1770   -3.6540   30.9010 C.3    90  ASN90       0.1785
     92  C         -1.1940   -3.2890   32.3870 C.2    90  ASN90       0.2597
     93  O         -0.8060   -4.0870   33.2480 O.2    90  ASN90      -0.2718
     94  CB         0.0630   -4.5080   30.6280 C.3    90  ASN90       0.1169
     95  CG         1.3540   -3.8570   31.1400 C.2    90  ASN90       0.2627
     96  OD1        1.5460   -2.6430   31.0180 O.2    90  ASN90      -0.2716
     97  ND2        2.2380   -4.6640   31.7130 N.am   90  ASN90      -0.0877
     98  N         -1.5270   -2.0310   32.6640 N.am   91  LYS91      -0.1980
     99  CA        -1.5850   -1.5080   34.0220 C.3    91  LYS91       0.1596
    100  C         -2.8510   -0.6640   34.1270 C.2    91  LYS91       0.2287
    101  O         -3.2840   -0.0550   33.1300 O.2    91  LYS91      -0.2864
    102  CB        -0.3440   -0.6510   34.3450 C.3    91  LYS91       0.0298
    103  CG         0.9950   -1.4090   34.4240 C.3    91  LYS91       0.0038
    104  CD         1.0010   -2.4180   35.5770 C.3    91  LYS91       0.0206
    105  CE         2.2400   -3.3150   35.5690 C.3    91  LYS91       0.1093
    106  NZ         3.4950   -2.5840   35.8990 N.3    91  LYS91      -0.1314
@<TRIPOS>BOND
     1     1     2    1
     2     4     3    2
     3     3     2    1
     4     3    13   am
     5     2     5    1
     6    14    13    1
     7    14    17    1
     8    14    15    1
     9    17    18    1
    10     7     9   ar
    11     7     6   ar
    12    23    15   am
    13    23    24    1
    14     5     6    1
    15    15    16    2
    16     9    11   ar
    17     6     8   ar
    18    18    19   ar
    19    18    20   ar
    20    24    25    1
    21    24    27    1
    22    19    21   ar
    23    25    26    2
    24    11    12    1
    25    11    10   ar
    26     8    10   ar
    27    30    28   am
    28    20    22   ar
    29    21    22   ar
    30    27    28    1
    31    28    29    2
    32    84    82   ar
    33    84    85   ar
    34    82    81   ar
    35    77    76    1
    36    77    78    1
    37    77    80    1
    38    78    79    2
    39    90    91    1
    40    85    87   ar
    41    85    83   ar
    42    81    80    1
    43    81    83   ar
    44    87    89   ar
    45    94    91    1
    46    94    95    1
    47    83    86   ar
    48    91    92    1
    49    96    95    2
    50    95    97   am
    51    89    88   ar
    52    86    88   ar
    53    92    98   am
    54    92    93    2
    55    66    64    1
    56    98    99    1
    57   101   100    2
    58    75    73   am
    59    73    72    1
    60    73    74    2
    61    99   100    1
    62    99   102    1
    63    64    63    1
    64    72    71    1
    65    65    63    1
    66   102   103    1
    67   103   104    1
    68    63    60    1
    69    43    42    2
    70    38    37   ar
    71    71    68    1
    72   105   104    1
    73   105   106    1
    74    68    67    1
    75    68    69    1
    76    59    60    1
    77    59    51   am
    78    60    61    1
    79    37    39   ar
    80    37    36    1
    81    42    41    1
    82    42    49   am
    83    56    58   ar
    84    56    54   ar
    85    44    41    1
    86    44    45    1
    87    70    69    2
    88    61    62    2
    89    36    35    1
    90    50    51    1
    91    50    49    1
    92    50    53    1
    93    58    57   ar
    94    41    40    1
    95    45    46    1
    96    51    52    2
    97    54    53    1
    98    54    55   ar
    99    31    32    1
   100    35    32    1
   101    57    55   ar
   102    46    48   am
   103    46    47    2
   104    32    33    1
   105    34    33    2
