@<TRIPOS>MOLECULE
tmp/1eenA00.pdb
 162 156 0 0 0
SMALL
GASTEIGER

@<TRIPOS>ATOM
      1  N         29.7840   13.1810   -2.5910 N.3    24  ARG24      -0.1245
      2  CA        28.4120   13.6890   -2.6120 C.3    24  ARG24       0.1563
      3  C         27.8430   13.7470   -4.0320 C.2    24  ARG24       0.2260
      4  O         26.6550   13.4620   -4.2530 O.2    24  ARG24      -0.2867
      5  CB        28.3360   15.0950   -2.0200 C.3    24  ARG24       0.0307
      6  CG        28.8300   15.2300   -0.5860 C.3    24  ARG24       0.0489
      7  CD        28.4350   16.6030   -0.0510 C.3    24  ARG24       0.2205
      8  NE        26.9790   16.7390   -0.0230 N.pl3  24  ARG24      -0.0865
      9  CZ        26.3020   17.7480   -0.5690 C.cat  24  ARG24       0.5346
     10  NH1       26.9470   18.7280   -1.1910 N.pl3  24  ARG24       0.1354
     11  NH2       24.9730   17.7740   -0.5050 N.pl3  24  ARG24       0.1354
     12  N         11.6440   13.2700   11.0980 N.3    45  ARG45      -0.1231
     13  CA        12.1850   14.3530   11.9170 C.3    45  ARG45       0.1694
     14  C         12.5970   15.5200   11.0270 C.2    45  ARG45       0.2592
     15  O         12.3650   16.6860   11.3580 O.2    45  ARG45      -0.2718
     16  CB        13.3930   13.8600   12.7030 C.3    45  ARG45       0.0321
     17  CG        14.0480   14.9290   13.6030 C.3    45  ARG45       0.0489
     18  CD        15.0950   14.2770   14.5190 C.3    45  ARG45       0.2205
     19  NE        14.4990   13.4370   15.5650 N.pl3  45  ARG45      -0.0865
     20  CZ        13.9720   13.9080   16.6970 C.cat  45  ARG45       0.5346
     21  NH1       13.9580   15.2190   16.9380 N.pl3  45  ARG45       0.1354
     22  NH2       13.4650   13.0770   17.6040 N.pl3  45  ARG45       0.1354
     23  N         13.1890   15.1900    9.8820 N.am   46  TYR46      -0.1962
     24  CA        13.6660   16.2030    8.9480 C.3    46  TYR46       0.1771
     25  C         13.0720   16.0340    7.5630 C.2    46  TYR46       0.2619
     26  O         12.9670   14.9150    7.0500 O.2    46  TYR46      -0.2715
     27  CB        15.1810   16.1330    8.8460 C.3    46  TYR46       0.0574
     28  CG        15.8980   16.3550   10.1580 C.ar   46  TYR46      -0.0198
     29  CD1       15.9180   17.6060   10.7700 C.ar   46  TYR46      -0.0009
     30  CD2       16.5710   15.3050   10.7850 C.ar   46  TYR46      -0.0009
     31  CE1       16.5990   17.8120   11.9860 C.ar   46  TYR46       0.0417
     32  CE2       17.2490   15.4980   11.9880 C.ar   46  TYR46       0.0417
     33  CZ        17.2620   16.7500   12.5830 C.ar   46  TYR46       0.1957
     34  OH        17.9500   16.9150   13.7690 O.3    46  TYR46      -0.2866
     35  N         12.6880   17.1390    6.9380 N.am   47  ARG47      -0.1963
     36  CA        12.1140   17.0440    5.6080 C.3    47  ARG47       0.1729
     37  C         13.1520   16.6170    4.5760 C.2    47  ARG47       0.2616
     38  O         12.7970   16.0620    3.5300 O.2    47  ARG47      -0.2715
     39  CB        11.4990   18.3880    5.2070 C.3    47  ARG47       0.0348
     40  CG        10.4240   18.8830    6.1730 C.3    47  ARG47       0.0492
     41  CD         9.5510   19.9800    5.5570 C.3    47  ARG47       0.2205
     42  NE         8.4840   20.4050    6.4780 N.pl3  47  ARG47      -0.0865
     43  CZ         7.3670   21.0340    6.1190 C.cat  47  ARG47       0.5346
     44  NH1        7.1360   21.3210    4.8440 N.pl3  47  ARG47       0.1354
     45  NH2        6.4840   21.4060    7.0450 N.pl3  47  ARG47       0.1354
     46  N         14.4310   16.8640    4.8610 N.am   48  ASP48      -0.1957
     47  CA        15.4900   16.5310    3.9060 C.3    48  ASP48       0.1840
     48  C         16.2690   15.2380    4.1530 C.2    48  ASP48       0.2621
     49  O         17.2930   14.9830    3.5090 O.2    48  ASP48      -0.2715
     50  CB        16.4680   17.7130    3.7530 C.3    48  ASP48       0.1450
     51  CG        17.0870   18.1630    5.0750 C.2    48  ASP48       0.3671
     52  OD1       16.6930   17.6520    6.1550 O.co2  48  ASP48      -0.2456
     53  OD2       17.9770   19.0500    5.0160 O.co2  48  ASP48      -0.2456
     54  N         15.7990   14.4220    5.0860 N.am   49  VAL49      -0.1977
     55  CA        16.4660   13.1480    5.3520 C.3    49  VAL49       0.1596
     56  C         15.3920   12.0720    5.3320 C.2    49  VAL49       0.2287
     57  O         14.5610   11.9750    6.2400 O.2    49  VAL49      -0.2864
     58  CB        17.1920   13.1260    6.7050 C.3    49  VAL49       0.0276
     59  CG1       17.8860   11.7430    6.8670 C.3    49  VAL49       0.0022
     60  CG2       18.2470   14.2590    6.7650 C.3    49  VAL49       0.0022
     61  N         17.3690   16.6640   19.9140 N.3   120  LYS120     -0.1245
     62  CA        17.7060   15.9540   18.6900 C.3   120  LYS120      0.1561
     63  C         17.0320   14.5920   18.6400 C.2   120  LYS120      0.2260
     64  O         17.0360   13.9330   17.6020 O.2   120  LYS120     -0.2867
     65  CB        19.2230   15.7760   18.6090 C.3   120  LYS120      0.0271
     66  CG        19.9850   17.0940   18.6050 C.3   120  LYS120      0.0035
     67  CD        19.5550   17.9530   17.4180 C.3   120  LYS120      0.0206
     68  CE        20.2330   19.3070   17.4250 C.3   120  LYS120      0.1093
     69  NZ        19.7860   20.1260   16.2640 N.3   120  LYS120     -0.1314
     70  N         26.9620   17.0110   17.0510 N.3   181  ASP181     -0.1225
     71  CA        26.3310   16.9230   15.7370 C.3   181  ASP181      0.1805
     72  C         27.2770   17.5860   14.7320 C.2   181  ASP181      0.2597
     73  O         27.8530   18.6510   15.0130 O.2   181  ASP181     -0.2718
     74  CB        24.9500   17.5970   15.7360 C.3   181  ASP181      0.1424
     75  CG        24.9980   19.0430   16.1790 C.2   181  ASP181      0.3668
     76  OD1       25.5250   19.3170   17.2870 O.co2 181  ASP181     -0.2456
     77  OD2       24.4960   19.9090   15.4180 O.co2 181  ASP181     -0.2456
     78  N         27.4640   16.9240   13.5890 N.am  182  PHE182     -0.1976
     79  CA        28.3520   17.3900   12.5210 C.3   182  PHE182      0.1639
     80  C         29.7900   17.4860   13.0170 C.2   182  PHE182      0.2290
     81  O         30.6180   18.1900   12.4320 O.2   182  PHE182     -0.2864
     82  CB        27.8700   18.7390   11.9710 C.3   182  PHE182      0.0560
     83  CG        26.5180   18.6660   11.3430 C.ar  182  PHE182     -0.0200
     84  CD1       26.3550   18.1040   10.0800 C.ar  182  PHE182     -0.0042
     85  CD2       25.3860   19.0410   12.0600 C.ar  182  PHE182     -0.0042
     86  CE1       25.0780   17.9020    9.5390 C.ar  182  PHE182     -0.0003
     87  CE2       24.1160   18.8450   11.5340 C.ar  182  PHE182     -0.0003
     88  CZ        23.9620   18.2690   10.2660 C.ar  182  PHE182     -0.0000
     89  N         21.3780    8.5920   15.0880 N.3   215  SER215     -0.1202
     90  CA        21.9160    9.8530   15.5690 C.3   215  SER215      0.2020
     91  C         20.6550   10.7060   15.5100 C.2   215  SER215      0.2619
     92  O         19.5640   10.1870   15.7850 O.2   215  SER215     -0.2717
     93  CB        23.0690   10.3930   14.6660 C.3   215  SER215      0.2103
     94  OG        22.9180   10.1580   13.2630 O.3   215  SER215     -0.2182
     95  N         20.7440   11.9940   15.2060 N.am  216  SER216     -0.1937
     96  CA        19.4970   12.7440   15.1360 C.3   216  SER216      0.2055
     97  C         18.8420   12.4310   13.7960 C.2   216  SER216      0.2643
     98  O         17.6560   12.1300   13.7370 O.2   216  SER216     -0.2714
     99  CB        19.7100   14.2570   15.2670 C.3   216  SER216      0.2130
    100  OG        18.4360   14.8960   15.2010 O.3   216  SER216     -0.2179
    101  N         19.6120   12.4700   12.7130 N.am  217  ALA217     -0.1963
    102  CA        19.0370   12.1630   11.4000 C.3   217  ALA217      0.1728
    103  C         19.3180   10.7250   10.9620 C.2   217  ALA217      0.2617
    104  O         18.6870   10.2250   10.0290 O.2   217  ALA217     -0.2715
    105  CB        19.5790   13.1450   10.3320 C.3   217  ALA217      0.0334
    106  N         20.2660   10.0690   11.6180 N.am  218  GLY218     -0.1940
    107  CA        20.5960    8.7020   11.2370 C.3   218  GLY218      0.2014
    108  C         21.4820    8.6580   10.0000 C.2   218  GLY218      0.2639
    109  O         21.4210    7.7050    9.2150 O.2   218  GLY218     -0.2714
    110  N         22.3200    9.6750    9.7980 N.am  219  ILE219     -0.1963
    111  CA        23.1820    9.6360    8.6110 C.3   219  ILE219      0.1727
    112  C         24.6290   10.1090    8.7880 C.2   219  ILE219      0.2617
    113  O         25.5260    9.5700    8.1540 O.2   219  ILE219     -0.2715
    114  CB        22.5650   10.4550    7.4210 C.3   219  ILE219      0.0290
    115  CG1       22.4640   11.9440    7.8020 C.3   219  ILE219      0.0022
    116  CG2       21.2120    9.8610    7.0130 C.3   219  ILE219      0.0023
    117  CD1       22.0180   12.8590    6.6200 C.3   219  ILE219      0.0001
    118  N         24.8560   11.1030    9.6490 N.am  220  GLY220     -0.1940
    119  CA        26.2040   11.6520    9.8070 C.3   220  GLY220      0.2014
    120  C         27.1010   10.8220   10.6970 C.2   220  GLY220      0.2638
    121  O         27.9880   10.1060   10.2390 O.2   220  GLY220     -0.2714
    122  N         26.8670   10.9460   11.9900 N.am  221  ARG221     -0.1977
    123  CA        27.6040   10.1790   12.9550 C.3   221  ARG221      0.1597
    124  C         27.3110    8.7040   12.7030 C.2   221  ARG221      0.2287
    125  O         28.1900    7.8680   12.8510 O.2   221  ARG221     -0.2864
    126  CB        27.1660   10.6140   14.3560 C.3   221  ARG221      0.0334
    127  CG        27.6350   12.0310   14.6500 C.3   221  ARG221      0.0492
    128  CD        26.9750   12.5920   15.8740 C.3   221  ARG221      0.2205
    129  NE        25.6360   13.0790   15.5580 N.pl3 221  ARG221     -0.0865
    130  CZ        24.8900   13.7720   16.4040 C.cat 221  ARG221      0.5346
    131  NH1       25.3610   14.0430   17.6100 N.pl3 221  ARG221      0.1354
    132  NH2       23.6980   14.2210   16.0340 N.pl3 221  ARG221      0.1354
    133  N         20.7740    7.7760    2.0010 N.3   258  MET258     -0.1230
    134  CA        21.3670    9.0270    1.5710 C.3   258  MET258      0.1702
    135  C         22.2160    9.7070    2.6360 C.2   258  MET258      0.2592
    136  O         22.0040    9.5050    3.8240 O.2   258  MET258     -0.2718
    137  CB        20.2470    9.9990    1.1930 C.3   258  MET258      0.0401
    138  CG        19.3180   10.3550    2.3840 C.3   258  MET258      0.0596
    139  SD        18.1840   11.7620    2.0570 S.3   258  MET258     -0.1393
    140  CE        17.1280   11.0920    0.7830 C.3   258  MET258      0.0692
    141  N         23.1550   10.5300    2.1770 N.am  259  GLY259     -0.1957
    142  CA        23.9800   11.3520    3.0520 C.3   259  GLY259      0.1869
    143  C         24.8270   10.7670    4.1580 C.2   259  GLY259      0.2309
    144  O         25.1470   11.4740    5.1100 O.2   259  GLY259     -0.2863
    145  N         28.3760   13.2630    6.9590 N.3   262  GLN262     -0.1245
    146  CA        27.9590   14.6140    6.6320 C.3   262  GLN262      0.1566
    147  C         28.9940   15.7170    6.4620 C.2   262  GLN262      0.2260
    148  O         28.6710   16.7670    5.9340 O.2   262  GLN262     -0.2867
    149  CB        26.9100   15.0380    7.6550 C.3   262  GLN262      0.0367
    150  CG        25.5760   14.3810    7.3720 C.3   262  GLN262      0.0905
    151  CD        24.9340   15.0180    6.1650 C.2   262  GLN262      0.2608
    152  OE1       24.5450   16.1860    6.2330 O.2   262  GLN262     -0.2717
    153  NE2       24.8450   14.2760    5.0390 N.am  262  GLN262     -0.0878
    154  N         34.3560   14.3300    9.0260 N.3   266  GLN266     -0.1245
    155  CA        33.8700   13.0180    9.4300 C.3   266  GLN266      0.1566
    156  C         34.5030   11.9840    8.4930 C.2   266  GLN266      0.2260
    157  O         34.8590   10.8850    8.9190 O.2   266  GLN266     -0.2867
    158  CB        32.3390   12.9700    9.3740 C.3   266  GLN266      0.0367
    159  CG        31.6830   13.5510   10.5980 C.3   266  GLN266      0.0905
    160  CD        30.1530   13.6220   10.4980 C.2   266  GLN266      0.2608
    161  OE1       29.5650   13.2310    9.4870 O.2   266  GLN266     -0.2717
    162  NE2       29.5070   14.1230   11.5550 N.am  266  GLN266     -0.0878
@<TRIPOS>BOND
     1     4     3    2
     2     3     2    1
     3     2     1    1
     4     2     5    1
     5     5     6    1
     6    10     9    1
     7     6     7    1
     8     9    11    1
     9     9     8    2
    10     7     8    1
    11   140   139    1
    12   137   134    1
    13   137   138    1
    14   134   133    1
    15   134   135    1
    16   139   138    1
    17   141   135   am
    18   141   142    1
    19   135   136    2
    20   142   143    1
    21    49    48    2
    22    38    37    2
    23    50    47    1
    24    50    51    1
    25    47    48    1
    26    47    46    1
    27    48    54   am
    28   143   144    2
    29    37    46   am
    30    37    36    1
    31    44    43    1
    32    53    51   ar
    33   153   151   am
    34    51    52   ar
    35    54    55    1
    36    39    36    1
    37    39    40    1
    38    56    55    1
    39    56    57    2
    40    55    58    1
    41    41    40    1
    42    41    42    1
    43    36    35    1
    44   148   147    2
    45    43    42    2
    46    43    45    1
    47   151   152    2
    48   151   150    1
    49   147   146    1
    50   117   115    1
    51   146   145    1
    52   146   149    1
    53    58    60    1
    54    58    59    1
    55    35    25   am
    56   116   114    1
    57    26    25    2
    58   150   149    1
    59   114   115    1
    60   114   111    1
    61    25    24    1
    62   113   112    2
    63   156   157    2
    64   156   155    1
    65   111   112    1
    66   111   110    1
    67   112   118   am
    68    27    24    1
    69    27    28    1
    70    24    23    1
    71   154   155    1
    72   109   108    2
    73   158   155    1
    74   158   159    1
    75   161   160    2
    76    86    84   ar
    77    86    88   ar
    78   118   119    1
    79   110   108   am
    80   119   120    1
    81    23    14   am
    82   108   107    1
    83   104   103    2
    84    84    83   ar
    85    28    29   ar
    86    28    30   ar
    87   121   120    2
    88    88    87   ar
    89   105   102    1
    90   160   159    1
    91   160   162   am
    92   120   122   am
    93    29    31   ar
    94    30    32   ar
    95   103   102    1
    96   103   106   am
    97    14    15    2
    98    14    13    1
    99    12    13    1
   100   107   106    1
   101    83    82    1
   102    83    85   ar
   103   102   101    1
   104    87    85   ar
   105    13    16    1
   106    82    79    1
   107    31    33   ar
   108    32    33   ar
   109   122   123    1
   110    81    80    2
   111    79    80    1
   112    79    78    1
   113    33    34    1
   114    16    17    1
   115   124   125    2
   116   124   123    1
   117   101    97   am
   118   123   126    1
   119    94    93    1
   120    78    72   am
   121    17    18    1
   122    98    97    2
   123    97    96    1
   124   126   127    1
   125    18    19    1
   126   127   128    1
   127    93    90    1
   128    72    73    2
   129    72    71    1
   130    89    90    1
   131    96    95    1
   132    96    99    1
   133   100    99    1
   134    95    91   am
   135    77    75   ar
   136    91    90    1
   137    91    92    2
   138   129   128    1
   139   129   130    2
   140    19    20    2
   141    74    71    1
   142    74    75    1
   143    71    70    1
   144   132   130    1
   145    75    76   ar
   146    69    68    1
   147   130   131    1
   148    20    21    1
   149    20    22    1
   150    67    68    1
   151    67    66    1
   152    64    63    2
   153    66    65    1
   154    65    62    1
   155    63    62    1
   156    62    61    1
