@<TRIPOS>MOLECULE
tmp/1eeoA00.pdb
 162 156 0 0 0
SMALL
GASTEIGER

@<TRIPOS>ATOM
      1  N         21.3190   16.1850   -1.7920 N.3    23  ARG23      -0.1245
      2  CA        19.8560   16.1570   -1.8130 C.3    23  ARG23       0.1563
      3  C         19.3380   15.9550   -3.2380 C.2    23  ARG23       0.2260
      4  O         18.4080   15.1780   -3.4730 O.2    23  ARG23      -0.2867
      5  CB        19.2640   17.4600   -1.2760 C.3    23  ARG23       0.0307
      6  CG        19.3110   17.6330    0.2290 C.3    23  ARG23       0.0489
      7  CD        18.4330   18.8300    0.6300 C.3    23  ARG23       0.2205
      8  NE        18.1400   18.8320    2.0550 N.pl3  23  ARG23      -0.0865
      9  CZ        17.1950   19.5720    2.6260 C.cat  23  ARG23       0.5346
     10  NH1       16.4370   20.3800    1.8850 N.pl3  23  ARG23       0.1354
     11  NH2       17.0150   19.5050    3.9400 N.pl3  23  ARG23       0.1354
     12  N          3.9930   10.5480   11.9080 N.3    44  ARG44      -0.1231
     13  CA         4.1610   11.7550   12.6970 C.3    44  ARG44       0.1694
     14  C          4.2320   12.9970   11.8010 C.2    44  ARG44       0.2592
     15  O          3.6570   14.0390   12.1240 O.2    44  ARG44      -0.2718
     16  CB         5.4340   11.6610   13.5580 C.3    44  ARG44       0.0321
     17  CG         5.7100   12.9220   14.3850 C.3    44  ARG44       0.0489
     18  CD         6.8860   12.7170   15.3360 C.3    44  ARG44       0.2205
     19  NE         6.5310   11.8060   16.4260 N.pl3  44  ARG44      -0.0865
     20  CZ         5.8190   12.1660   17.4900 C.cat  44  ARG44       0.5346
     21  NH1        5.3930   13.4170   17.6170 N.pl3  44  ARG44       0.1354
     22  NH2        5.5100   11.2680   18.4200 N.pl3  44  ARG44       0.1354
     23  N          4.9360   12.8820   10.6790 N.am   45  TYR45      -0.1962
     24  CA         5.0960   14.0070    9.7550 C.3    45  TYR45       0.1771
     25  C          4.6600   13.6530    8.3360 C.2    45  TYR45       0.2619
     26  O          4.9490   12.5620    7.8490 O.2    45  TYR45      -0.2715
     27  CB         6.5620   14.4380    9.7260 C.3    45  TYR45       0.0574
     28  CG         7.0970   14.8820   11.0680 C.ar   45  TYR45      -0.0198
     29  CD1        6.6400   16.0600   11.6700 C.ar   45  TYR45      -0.0009
     30  CD2        8.0870   14.1420   11.7210 C.ar   45  TYR45      -0.0009
     31  CE1        7.1610   16.4920   12.8830 C.ar   45  TYR45       0.0417
     32  CE2        8.6120   14.5620   12.9360 C.ar   45  TYR45       0.0417
     33  CZ         8.1470   15.7380   13.5080 C.ar   45  TYR45       0.1957
     34  OH         8.6900   16.1680   14.6930 O.3    45  TYR45      -0.2866
     35  N          3.9740   14.5800    7.6730 N.am   46  ARG46      -0.1963
     36  CA         3.5140   14.3420    6.3040 C.3    46  ARG46       0.1729
     37  C          4.6650   14.3170    5.3010 C.2    46  ARG46       0.2616
     38  O          4.5280   13.7440    4.2140 O.2    46  ARG46      -0.2715
     39  CB         2.5130   15.4290    5.8740 C.3    46  ARG46       0.0348
     40  CG         1.2160   15.4660    6.6780 C.3    46  ARG46       0.0492
     41  CD         0.4860   14.1320    6.6080 C.3    46  ARG46       0.2205
     42  NE        -0.7960   14.1590    7.3100 N.pl3  46  ARG46      -0.0865
     43  CZ        -1.9580   14.4720    6.7400 C.cat  46  ARG46       0.5346
     44  NH1       -2.0060   14.7820    5.4490 N.pl3  46  ARG46       0.1354
     45  NH2       -3.0750   14.4780    7.4600 N.pl3  46  ARG46       0.1354
     46  N          5.7920   14.9270    5.6600 N.am   47  ASP47      -0.1957
     47  CA         6.9330   14.9890    4.7550 C.3    47  ASP47       0.1840
     48  C          8.0590   13.9970    5.0520 C.2    47  ASP47       0.2621
     49  O          9.1610   14.1300    4.5310 O.2    47  ASP47      -0.2715
     50  CB         7.4730   16.4270    4.6820 C.3    47  ASP47       0.1450
     51  CG         7.8720   16.9790    6.0320 C.2    47  ASP47       0.3671
     52  OD1        7.5120   16.3700    7.0590 O.co2  47  ASP47      -0.2456
     53  OD2        8.5430   18.0360    6.0630 O.co2  47  ASP47      -0.2456
     54  N          7.7780   13.0020    5.8900 N.am   48  VAL48      -0.1977
     55  CA         8.7800   11.9790    6.1950 C.3    48  VAL48       0.1596
     56  C          8.0680   10.6340    6.1540 C.2    48  VAL48       0.2287
     57  O          7.3040   10.3060    7.0630 O.2    48  VAL48      -0.2864
     58  CB         9.4030   12.1700    7.5800 C.3    48  VAL48       0.0276
     59  CG1       10.4550   11.0730    7.8220 C.3    48  VAL48       0.0022
     60  CG2       10.0310   13.5540    7.6830 C.3    48  VAL48       0.0022
     61  N          7.8090   15.8260   20.5540 N.3   119  LYS119     -0.1245
     62  CA         8.4870   15.2990   19.3740 C.3   119  LYS119      0.1561
     63  C          8.5440   13.7740   19.3530 C.2   119  LYS119      0.2260
     64  O          9.0050   13.1710   18.3750 O.2   119  LYS119     -0.2867
     65  CB         9.9120   15.8540   19.3330 C.3   119  LYS119      0.0271
     66  CG         9.9630   17.3650   19.1670 C.3   119  LYS119      0.0035
     67  CD         9.6960   17.7380   17.7200 C.3   119  LYS119      0.0206
     68  CE         9.1640   19.1530   17.5930 C.3   119  LYS119      0.1093
     69  NZ         7.7350   19.2120   18.0120 N.3   119  LYS119     -0.1314
     70  N         17.3380   19.4710   17.9470 N.3   180  ASP180     -0.1225
     71  CA        16.7200   19.1110   16.6790 C.3   180  ASP180      0.1805
     72  C         17.3310   20.0040   15.6000 C.2   180  ASP180      0.2597
     73  O         17.5040   21.2140   15.8020 O.2   180  ASP180     -0.2718
     74  CB        15.1950   19.2760   16.7380 C.3   180  ASP180      0.1424
     75  CG        14.7640   20.7090   16.9560 C.2   180  ASP180      0.3668
     76  OD1       15.1540   21.3020   17.9840 O.co2 180  ASP180     -0.2456
     77  OD2       14.0230   21.2350   16.0970 O.co2 180  ASP180     -0.2456
     78  N         17.6810   19.3990   14.4680 N.am  181  PHE181     -0.1976
     79  CA        18.3020   20.1220   13.3650 C.3   181  PHE181      0.1639
     80  C         19.6010   20.7470   13.8510 C.2   181  PHE181      0.2290
     81  O         20.0670   21.7510   13.3100 O.2   181  PHE181     -0.2864
     82  CB        17.3510   21.1950   12.8230 C.3   181  PHE181      0.0560
     83  CG        16.1330   20.6230   12.1530 C.ar  181  PHE181     -0.0200
     84  CD1       16.2390   19.9810   10.9190 C.ar  181  PHE181     -0.0042
     85  CD2       14.8900   20.6630   12.7790 C.ar  181  PHE181     -0.0042
     86  CE1       15.1240   19.3790   10.3170 C.ar  181  PHE181     -0.0003
     87  CE2       13.7730   20.0660   12.1840 C.ar  181  PHE181     -0.0003
     88  CZ        13.8950   19.4230   10.9520 C.ar  181  PHE181     -0.0000
     89  N         14.8690    9.4490   15.9420 N.3   214  SER214     -0.1202
     90  CA        14.9470   10.8240   16.4080 C.3   214  SER214      0.2020
     91  C         13.4620   11.2040   16.3980 C.2   214  SER214      0.2619
     92  O         12.6240   10.3640   16.7320 O.2   214  SER214     -0.2717
     93  CB        15.7800   11.6770   15.4350 C.3   214  SER214      0.2103
     94  OG        15.6120   11.2460   14.0830 O.3   214  SER214     -0.2182
     95  N         13.0990   12.4300   16.0420 N.am  215  SER215     -0.1937
     96  CA        11.6730   12.7290   16.0080 C.3   215  SER215      0.2055
     97  C         11.1130   12.1850   14.6860 C.2   215  SER215      0.2643
     98  O         10.0820   11.5130   14.6580 O.2   215  SER215     -0.2714
     99  CB        11.4100   14.2340   16.1170 C.3   215  SER215      0.2130
    100  OG        10.0050   14.4570   16.1500 O.3   215  SER215     -0.2179
    101  N         11.8290   12.4400   13.5940 N.am  216  ALA216     -0.1963
    102  CA        11.4010   11.9800   12.2740 C.3   216  ALA216      0.1728
    103  C         12.1590   10.7280   11.8530 C.2   216  ALA216      0.2617
    104  O         11.7310   10.0120   10.9490 O.2   216  ALA216     -0.2715
    105  CB        11.6270   13.0960   11.2300 C.3   216  ALA216      0.0334
    106  N         13.2900   10.4720   12.5020 N.am  217  GLY217     -0.1940
    107  CA        14.0920    9.3160   12.1360 C.3   217  GLY217      0.2014
    108  C         14.9340    9.5310   10.8800 C.2   217  GLY217      0.2639
    109  O         15.2170    8.5770   10.1460 O.2   217  GLY217     -0.2714
    110  N         15.3460   10.7710   10.6140 N.am  218  ILE218     -0.1963
    111  CA        16.1770   11.0180    9.4320 C.3   218  ILE218      0.1727
    112  C         17.3640   11.9620    9.6270 C.2   218  ILE218      0.2617
    113  O         18.4060   11.7390    9.0360 O.2   218  ILE218     -0.2715
    114  CB        15.3510   11.5700    8.2250 C.3   218  ILE218      0.0290
    115  CG1       14.7670   12.9440    8.5780 C.3   218  ILE218      0.0022
    116  CG2       14.2760   10.5540    7.8200 C.3   218  ILE218      0.0023
    117  CD1       14.0120   13.6130    7.4160 C.3   218  ILE218      0.0001
    118  N         17.2100   13.0000   10.4520 N.am  219  GLY219     -0.1940
    119  CA        18.2860   13.9770   10.6300 C.3   219  GLY219      0.2014
    120  C         19.3980   13.5270   11.5520 C.2   219  GLY219      0.2638
    121  O         20.4930   13.1520   11.1090 O.2   219  GLY219     -0.2714
    122  N         19.1300   13.5820   12.8500 N.am  220  ARG220     -0.1977
    123  CA        20.1100   13.1300   13.8290 C.3   220  ARG220      0.1597
    124  C         20.3580   11.6290   13.6200 C.2   220  ARG220      0.2287
    125  O         21.4820   11.1430   13.7750 O.2   220  ARG220     -0.2864
    126  CB        19.5830   13.4140   15.2400 C.3   220  ARG220      0.0334
    127  CG        19.6010   14.8990   15.5590 C.3   220  ARG220      0.0492
    128  CD        18.7160   15.2590   16.7450 C.3   220  ARG220      0.2205
    129  NE        17.2940   15.2330   16.4060 N.pl3 220  ARG220     -0.0865
    130  CZ        16.3410   15.6430   17.2360 C.cat 220  ARG220      0.5346
    131  NH1       16.6810   16.1040   18.4390 N.pl3 220  ARG220      0.1354
    132  NH2       15.0610   15.5970   16.8680 N.pl3 220  ARG220      0.1354
    133  N         14.3750    8.3250    2.9220 N.3   257  MET257     -0.1230
    134  CA        14.5550    9.7020    2.4790 C.3   257  MET257      0.1702
    135  C         15.0910   10.6670    3.5380 C.2   257  MET257      0.2592
    136  O         14.9150   10.4680    4.7430 O.2   257  MET257     -0.2718
    137  CB        13.2220   10.2630    1.9820 C.3   257  MET257      0.0401
    138  CG        12.1690   10.3850    3.0970 C.3   257  MET257      0.0596
    139  SD        10.6280   11.1990    2.5860 S.3   257  MET257     -0.1393
    140  CE         9.9870    9.9910    1.4130 C.3   257  MET257      0.0692
    141  N         15.7670   11.7010    3.0460 N.am  258  GLY258     -0.1957
    142  CA        16.2460   12.7870    3.8840 C.3   258  GLY258      0.1869
    143  C         17.2570   12.5880    4.9780 C.2   258  GLY258      0.2309
    144  O         17.3640   13.4490    5.8620 O.2   258  GLY258     -0.2863
    145  N         19.7660   16.1590    7.8300 N.3   261  GLN261     -0.1245
    146  CA        18.8860   17.2740    7.4870 C.3   261  GLN261      0.1566
    147  C         19.4600   18.6660    7.2860 C.2   261  GLN261      0.2260
    148  O         18.7420   19.5560    6.8220 O.2   261  GLN261     -0.2867
    149  CB        17.7490   17.3560    8.5110 C.3   261  GLN261      0.0367
    150  CG        16.6080   16.3990    8.1990 C.3   261  GLN261      0.0905
    151  CD        15.8310   16.8440    6.9800 C.2   261  GLN261      0.2608
    152  OE1       15.1140   17.8420    7.0340 O.2   261  GLN261     -0.2717
    153  NE2       15.9820   16.1190    5.8640 N.am  261  GLN261     -0.0878
    154  N         25.0050   19.3100    9.8660 N.3   265  GLN265     -0.1245
    155  CA        24.9970   17.9310   10.3370 C.3   265  GLN265      0.1566
    156  C         25.9480   17.1440    9.4240 C.2   265  GLN265      0.2260
    157  O         26.6820   16.2700    9.8790 O.2   265  GLN265     -0.2867
    158  CB        23.5830   17.3410   10.2920 C.3   265  GLN265      0.0367
    159  CG        22.6250   17.9560   11.3230 C.3   265  GLN265      0.0905
    160  CD        21.2530   17.3110   11.3180 C.2   265  GLN265      0.2608
    161  OE1       20.8070   16.7650   10.3040 O.2   265  GLN265     -0.2717
    162  NE2       20.5710   17.3750   12.4540 N.am  265  GLN265     -0.0878
@<TRIPOS>BOND
     1     4     3    2
     2     3     2    1
     3     2     1    1
     4     2     5    1
     5     5     6    1
     6     6     7    1
     7     7     8    1
     8   140   139    1
     9    10     9    1
    10   137   134    1
    11   137   138    1
    12     8     9    2
    13   134   133    1
    14   134   135    1
    15   139   138    1
    16     9    11    1
    17   141   135   am
    18   141   142    1
    19   135   136    2
    20   142   143    1
    21    38    37    2
    22    49    48    2
    23    50    47    1
    24    50    51    1
    25    47    48    1
    26    47    46    1
    27   143   144    2
    28    48    54   am
    29    37    46   am
    30    37    36    1
    31    44    43    1
    32   153   151   am
    33    39    36    1
    34    39    40    1
    35    54    55    1
    36    51    53   ar
    37    51    52   ar
    38    56    55    1
    39    56    57    2
    40    55    58    1
    41    36    35    1
    42    41    40    1
    43    41    42    1
    44    43    42    2
    45    43    45    1
    46   148   147    2
    47   151   152    2
    48   151   150    1
    49   147   146    1
    50   117   115    1
    51   146   145    1
    52   146   149    1
    53    58    60    1
    54    58    59    1
    55    35    25   am
    56   116   114    1
    57    26    25    2
    58   150   149    1
    59   114   115    1
    60   114   111    1
    61    25    24    1
    62   113   112    2
    63   156   157    2
    64   156   155    1
    65   111   112    1
    66   111   110    1
    67   112   118   am
    68    27    24    1
    69    27    28    1
    70    24    23    1
    71   154   155    1
    72   109   108    2
    73   158   155    1
    74   158   159    1
    75   161   160    2
    76    86    84   ar
    77    86    88   ar
    78   118   119    1
    79   110   108   am
    80   119   120    1
    81    23    14   am
    82   108   107    1
    83    84    83   ar
    84   104   103    2
    85    88    87   ar
    86    28    29   ar
    87    28    30   ar
    88   121   120    2
    89   105   102    1
    90   160   159    1
    91   160   162   am
    92   120   122   am
    93    29    31   ar
    94    30    32   ar
    95    14    15    2
    96    14    13    1
    97   103   102    1
    98   103   106   am
    99    12    13    1
   100   107   106    1
   101    83    85   ar
   102    83    82    1
   103    87    85   ar
   104   102   101    1
   105    13    16    1
   106    82    79    1
   107   122   123    1
   108    31    33   ar
   109    32    33   ar
   110    81    80    2
   111    79    80    1
   112    79    78    1
   113    33    34    1
   114    16    17    1
   115   101    97   am
   116   124   125    2
   117   124   123    1
   118   123   126    1
   119    94    93    1
   120    17    18    1
   121    78    72   am
   122    98    97    2
   123    97    96    1
   124   126   127    1
   125    18    19    1
   126    93    90    1
   127   127   128    1
   128    72    73    2
   129    72    71    1
   130    89    90    1
   131    96    95    1
   132    96    99    1
   133    95    91   am
   134    77    75   ar
   135    99   100    1
   136    91    90    1
   137    91    92    2
   138   129   128    1
   139   129   130    2
   140    19    20    2
   141    71    74    1
   142    71    70    1
   143    74    75    1
   144   132   130    1
   145    75    76   ar
   146   130   131    1
   147    20    21    1
   148    20    22    1
   149    68    67    1
   150    68    69    1
   151    67    66    1
   152    64    63    2
   153    66    65    1
   154    65    62    1
   155    63    62    1
   156    62    61    1
