@<TRIPOS>MOLECULE
tmp/1eetA00.pdb
 152 150 0 0 0
SMALL
GASTEIGER

@<TRIPOS>ATOM
      1  N        -11.4820  133.7640  178.1100 N.3    86  PRO86      -0.2116
      2  CA       -10.7130  133.9200  176.8750 C.3    86  PRO86       0.1372
      3  C         -9.2330  134.0270  177.1650 C.2    86  PRO86       0.2244
      4  O         -8.8320  134.6220  178.1580 O.2    86  PRO86      -0.2868
      5  CB       -11.2670  135.2160  176.2770 C.3    86  PRO86       0.0268
      6  CG       -12.6510  135.3120  176.8370 C.3    86  PRO86       0.0207
      7  CD       -12.4580  134.8590  178.2640 C.3    86  PRO86       0.0892
      8  N         -7.0980  136.1740  171.0730 N.3    91  LEU91      -0.1231
      9  CA        -7.7090  137.4230  170.6670 C.3    91  LEU91       0.1693
     10  C         -7.1520  137.9330  169.3270 C.2    91  LEU91       0.2591
     11  O         -6.0050  137.6620  168.9660 O.2    91  LEU91      -0.2718
     12  CB        -7.4960  138.4650  171.7640 C.3    91  LEU91       0.0284
     13  CG        -8.1330  138.1040  173.1100 C.3    91  LEU91       0.0019
     14  CD1       -7.8890  139.2260  174.1000 C.3    91  LEU91       0.0001
     15  CD2       -9.6200  137.8700  172.9430 C.3    91  LEU91       0.0001
     16  N         -7.9830  138.6530  168.5830 N.am   92  LYS92      -0.1980
     17  CA        -7.5670  139.2150  167.3050 C.3    92  LYS92       0.1596
     18  C         -6.9360  140.5870  167.5420 C.2    92  LYS92       0.2287
     19  O         -7.1930  141.2220  168.5660 O.2    92  LYS92      -0.2864
     20  CB        -8.7620  139.3510  166.3650 C.3    92  LYS92       0.0298
     21  CG        -9.1320  138.0710  165.6370 C.3    92  LYS92       0.0038
     22  CD       -10.3120  137.3480  166.2750 C.3    92  LYS92       0.0206
     23  CE        -9.9750  136.8060  167.6640 C.3    92  LYS92       0.1093
     24  NZ       -11.1420  136.1800  168.3400 N.3    92  LYS92      -0.1314
     25  N         -6.5530  144.4070  167.5240 N.3    94  LYS94      -0.1245
     26  CA        -7.5890  145.4390  167.5270 C.3    94  LYS94       0.1561
     27  C         -6.9920  146.8430  167.5340 C.2    94  LYS94       0.2260
     28  O         -6.0060  147.1190  168.2290 O.2    94  LYS94      -0.2867
     29  CB        -8.5180  145.2730  168.7300 C.3    94  LYS94       0.0271
     30  CG        -9.9750  145.0460  168.3660 C.3    94  LYS94       0.0035
     31  CD       -10.1330  143.8390  167.4710 C.3    94  LYS94       0.0206
     32  CE       -11.5910  143.4980  167.2640 C.3    94  LYS94       0.1093
     33  NZ       -11.7460  142.2470  166.4640 N.3    94  LYS94      -0.1314
     34  N         -9.7850  150.1020  171.5390 N.3    97  VAL97      -0.1245
     35  CA       -10.4760  149.3350  172.5670 C.3    97  VAL97       0.1561
     36  C        -10.7130  150.2040  173.8020 C.2    97  VAL97       0.2260
     37  O         -9.8170  150.9050  174.2790 O.2    97  VAL97      -0.2867
     38  CB        -9.6580  148.0810  172.9480 C.3    97  VAL97       0.0252
     39  CG1       -8.2230  148.4790  173.1700 C.3    97  VAL97       0.0019
     40  CG2      -10.2240  147.4290  174.1940 C.3    97  VAL97       0.0019
     41  N        -17.0000  144.6800  168.3710 N.3   164  VAL164     -0.1231
     42  CA       -16.8380  143.5200  169.2330 C.3   164  VAL164      0.1692
     43  C        -17.0060  143.9370  170.6860 C.2   164  VAL164      0.2592
     44  O        -16.4180  144.9330  171.1260 O.2   164  VAL164     -0.2718
     45  CB       -15.4450  142.8930  169.0590 C.3   164  VAL164      0.0266
     46  CG1      -15.3320  141.6560  169.8860 C.3   164  VAL164      0.0020
     47  CG2      -15.2140  142.5520  167.6200 C.3   164  VAL164      0.0020
     48  N        -17.7990  143.1660  171.4290 N.am  165  ILE165     -0.1966
     49  CA       -18.0680  143.4450  172.8380 C.3   165  ILE165      0.1727
     50  C        -17.8930  142.2010  173.6960 C.2   165  ILE165      0.2616
     51  O        -18.4750  141.1620  173.4130 O.2   165  ILE165     -0.2715
     52  CB       -19.5310  143.9340  173.0560 C.3   165  ILE165      0.0290
     53  CG1      -19.7650  145.2770  172.3730 C.3   165  ILE165      0.0022
     54  CG2      -19.8200  144.0710  174.5350 C.3   165  ILE165      0.0023
     55  CD1      -21.2220  145.6980  172.3940 C.3   165  ILE165      0.0001
     56  N        -17.1110  142.3240  174.7600 N.am  166  TYR166     -0.1974
     57  CA       -16.8870  141.2190  175.6820 C.3   166  TYR166      0.1639
     58  C        -17.3540  141.6340  177.0810 C.2   166  TYR166      0.2290
     59  O        -16.8420  142.5960  177.6640 O.2   166  TYR166     -0.2864
     60  CB       -15.3930  140.8260  175.7160 C.3   166  TYR166      0.0560
     61  CG       -15.0510  139.8040  176.7890 C.ar  166  TYR166     -0.0198
     62  CD1      -15.5250  138.4870  176.7150 C.ar  166  TYR166     -0.0009
     63  CD2      -14.3300  140.1780  177.9220 C.ar  166  TYR166     -0.0009
     64  CE1      -15.2940  137.5790  177.7520 C.ar  166  TYR166      0.0417
     65  CE2      -14.0950  139.2900  178.9540 C.ar  166  TYR166      0.0417
     66  CZ       -14.5790  137.9960  178.8740 C.ar  166  TYR166      0.1957
     67  OH       -14.3850  137.1460  179.9430 O.3   166  TYR166     -0.2866
     68  N        -15.9500  145.3110  177.6440 N.3   173  TYR173     -0.1241
     69  CA       -14.8060  145.6710  176.8170 C.3   173  TYR173      0.1605
     70  C        -15.2870  145.7900  175.3820 C.2   173  TYR173      0.2264
     71  O        -15.7860  144.8220  174.8070 O.2   173  TYR173     -0.2867
     72  CB       -13.7040  144.6300  176.9430 C.3   173  TYR173      0.0534
     73  CG       -13.1860  144.5130  178.3540 C.ar  173  TYR173     -0.0201
     74  CD1      -13.9010  143.8050  179.3230 C.ar  173  TYR173     -0.0009
     75  CD2      -11.9950  145.1340  178.7350 C.ar  173  TYR173     -0.0009
     76  CE1      -13.4440  143.7180  180.6340 C.ar  173  TYR173      0.0417
     77  CE2      -11.5320  145.0530  180.0410 C.ar  173  TYR173      0.0417
     78  CZ       -12.2610  144.3450  180.9840 C.ar  173  TYR173      0.1957
     79  OH       -11.8140  144.2710  182.2800 O.3   173  TYR173     -0.2866
     80  N        -14.2620  146.7660  171.5220 N.3   175  GLY175     -0.1225
     81  CA       -13.1500  146.9770  170.6270 C.3   175  GLY175      0.1811
     82  C        -13.6330  146.9710  169.2010 C.2   175  GLY175      0.2280
     83  O        -14.6800  146.3970  168.8970 O.2   175  GLY175     -0.2866
     84  N         -6.0060  151.2170  176.2820 N.3   210  PRO210     -0.2116
     85  CA        -4.9540  150.3390  176.7850 C.3   210  PRO210      0.1372
     86  C         -3.7090  151.1840  176.9850 C.2   210  PRO210      0.2244
     87  O         -3.6670  152.3360  176.5580 O.2   210  PRO210     -0.2868
     88  CB        -4.8040  149.3090  175.6680 C.3   210  PRO210      0.0268
     89  CG        -5.2960  150.0420  174.4440 C.3   210  PRO210      0.0207
     90  CD        -6.4840  150.7800  174.9620 C.3   210  PRO210      0.0892
     91  N         -4.2060  147.7600  179.0080 N.3   212  PHE212     -0.1241
     92  CA        -5.2340  147.2600  179.9010 C.3   212  PHE212      0.1605
     93  C         -4.7420  146.1290  180.7720 C.2   212  PHE212      0.2264
     94  O         -4.1000  145.2060  180.2860 O.2   212  PHE212     -0.2867
     95  CB        -6.3980  146.7210  179.1070 C.3   212  PHE212      0.0534
     96  CG        -7.3760  147.7510  178.7020 C.ar  212  PHE212     -0.0203
     97  CD1       -7.6770  148.8050  179.5520 C.ar  212  PHE212     -0.0042
     98  CD2       -8.0650  147.6260  177.5030 C.ar  212  PHE212     -0.0042
     99  CE1       -8.6550  149.7150  179.2190 C.ar  212  PHE212     -0.0003
    100  CE2       -9.0460  148.5270  177.1560 C.ar  212  PHE212     -0.0003
    101  CZ        -9.3480  149.5780  178.0160 C.ar  212  PHE212     -0.0000
    102  N         -5.8240  142.9980  182.8920 N.3   214  TRP214     -0.1241
    103  CA        -6.9840  142.1380  183.0060 C.3   214  TRP214      0.1605
    104  C         -6.5560  140.7140  183.3020 C.2   214  TRP214      0.2264
    105  O         -5.6200  140.2100  182.6970 O.2   214  TRP214     -0.2867
    106  CB        -7.7620  142.2110  181.6870 C.3   214  TRP214      0.0550
    107  CG        -8.9370  141.2900  181.5750 C.ar  214  TRP214      0.0003
    108  CD1      -10.1380  141.4060  182.2090 C.ar  214  TRP214      0.0946
    109  CD2       -9.0230  140.1020  180.7730 C.ar  214  TRP214      0.0152
    110  NE1      -10.9680  140.3680  181.8540 N.ar  214  TRP214     -0.2442
    111  CE2      -10.3080  139.5530  180.9740 C.ar  214  TRP214      0.0810
    112  CE3       -8.1380  139.4490  179.9050 C.ar  214  TRP214      0.0012
    113  CZ2      -10.7310  138.3800  180.3400 C.ar  214  TRP214      0.0191
    114  CZ3       -8.5600  138.2830  179.2760 C.ar  214  TRP214      0.0001
    115  CH2       -9.8450  137.7620  179.4970 C.ar  214  TRP214      0.0015
    116  N         -2.7510  143.8140  178.2390 N.3   219  LEU219     -0.1231
    117  CA        -2.9760  143.8230  176.8060 C.3   219  LEU219      0.1693
    118  C         -2.8610  145.1860  176.1390 C.2   219  LEU219      0.2592
    119  O         -3.4320  146.1630  176.6020 O.2   219  LEU219     -0.2718
    120  CB        -4.3520  143.2330  176.5010 C.3   219  LEU219      0.0284
    121  CG        -4.6300  141.8170  177.0050 C.3   219  LEU219      0.0019
    122  CD1       -4.8850  141.8470  178.4880 C.3   219  LEU219      0.0001
    123  CD2       -5.8370  141.2460  176.2890 C.3   219  LEU219      0.0001
    124  N         -2.1100  145.2330  175.0450 N.am  220  HIS220     -0.1962
    125  CA        -1.9240  146.4400  174.2500 C.3   220  HIS220      0.1772
    126  C         -2.6950  146.1250  172.9690 C.2   220  HIS220      0.2462
    127  O         -3.0080  144.9710  172.7020 O.2   220  HIS220     -0.2730
    128  CB        -0.4410  146.6490  173.9500 C.3   220  HIS220      0.0785
    129  CG         0.4180  146.7350  175.1760 C.ar  220  HIS220      0.0821
    130  ND1        0.8230  147.9340  175.7230 N.ar  220  HIS220     -0.2267
    131  CD2        0.9300  145.7670  175.9770 C.ar  220  HIS220      0.1154
    132  CE1        1.5460  147.7030  176.8050 C.ar  220  HIS220      0.1986
    133  NE2        1.6260  146.3960  176.9810 N.ar  220  HIS220     -0.2212
    134  N         -3.0180  147.1310  172.1580 N.am  221  PRO221     -0.2727
    135  CA        -3.7650  146.7780  170.9440 C.3   221  PRO221      0.1402
    136  C         -2.9950  145.9040  169.9620 C.2   221  PRO221      0.2269
    137  O         -3.5780  145.1670  169.1670 O.2   221  PRO221     -0.2865
    138  CB        -4.1220  148.1380  170.3600 C.3   221  PRO221      0.0296
    139  CG        -2.9850  149.0010  170.8250 C.3   221  PRO221      0.0237
    140  CD        -2.7820  148.5790  172.2430 C.3   221  PRO221      0.0939
    141  N         -1.1540  138.6620  168.6930 N.3   303  TYR303     -0.1241
    142  CA        -2.5600  138.2500  168.6550 C.3   303  TYR303      0.1605
    143  C         -2.8130  137.3590  167.4580 C.2   303  TYR303      0.2264
    144  O         -2.0430  137.3660  166.5130 O.2   303  TYR303     -0.2867
    145  CB        -3.5110  139.4480  168.5860 C.3   303  TYR303      0.0534
    146  CG        -3.6010  140.2130  169.8750 C.ar  303  TYR303     -0.0201
    147  CD1       -3.0720  141.4960  169.9870 C.ar  303  TYR303     -0.0009
    148  CD2       -4.1810  139.6390  170.9980 C.ar  303  TYR303     -0.0009
    149  CE1       -3.1190  142.1780  171.1760 C.ar  303  TYR303      0.0417
    150  CE2       -4.2330  140.3190  172.1920 C.ar  303  TYR303      0.0417
    151  CZ        -3.7030  141.5850  172.2740 C.ar  303  TYR303      0.1957
    152  OH        -3.7810  142.2660  173.4570 O.3   303  TYR303     -0.2866
@<TRIPOS>BOND
     1    21    22    1
     2    21    20    1
     3    22    23    1
     4    20    17    1
     5    33    32    1
     6   144   143    2
     7    32    31    1
     8    17    18    1
     9    17    16    1
    10   143   142    1
    11    31    30    1
    12    25    26    1
    13    26    27    1
    14    26    29    1
    15    27    28    2
    16    18    19    2
    17    47    45    1
    18    23    24    1
    19    30    29    1
    20    41    42    1
    21    16    10   am
    22   145   142    1
    23   145   146    1
    24   142   141    1
    25    83    82    2
    26    11    10    2
    27    45    42    1
    28    45    46    1
    29   137   136    2
    30    82    81    1
    31    42    43    1
    32    10     9    1
    33   146   147   ar
    34   146   148   ar
    35   136   135    1
    36   147   149   ar
    37   138   139    1
    38   138   135    1
    39    81    80    1
    40     9     8    1
    41     9    12    1
    42    43    44    2
    43    43    48   am
    44   139   140    1
    45   135   134    1
    46   148   150   ar
    47   149   151   ar
    48    48    49    1
    49    34    35    1
    50    12    13    1
    51   134   140    1
    52   134   126   am
    53   150   151   ar
    54   151   152    1
    55    53    55    1
    56    53    52    1
    57    35    38    1
    58    35    36    1
    59   127   126    2
    60    49    52    1
    61    49    50    1
    62    15    13    1
    63    38    39    1
    64    38    40    1
    65   126   125    1
    66    52    54    1
    67    13    14    1
    68    51    50    2
    69    50    56   am
    70    36    37    2
    71   128   125    1
    72   128   129    1
    73   125   124    1
    74    89    90    1
    75    89    88    1
    76    56    57    1
    77    71    70    2
    78    90    84    1
    79   124   118   am
    80   129   130   ar
    81   129   131   ar
    82    70    69    1
    83    88    85    1
    84    57    60    1
    85    57    58    1
    86    60    61    1
    87   130   132   ar
    88   131   133   ar
    89   118   119    2
    90   118   117    1
    91     5     6    1
    92     5     2    1
    93    84    85    1
    94   123   121    1
    95   120   117    1
    96   120   121    1
    97    87    86    2
    98    62    61   ar
    99    62    64   ar
   100    85    86    1
   101    61    63   ar
   102   132   133   ar
   103   117   116    1
   104    69    72    1
   105    69    68    1
   106     6     7    1
   107     2     3    1
   108     2     1    1
   109    72    73    1
   110   121   122    1
   111    58    59    2
   112   100    98   ar
   113   100   101   ar
   114     3     4    2
   115    98    96   ar
   116    64    66   ar
   117    63    65   ar
   118   101    99   ar
   119     1     7    1
   120    73    75   ar
   121    73    74   ar
   122    96    95    1
   123    96    97   ar
   124    75    77   ar
   125    66    65   ar
   126    66    67    1
   127    91    92    1
   128    95    92    1
   129    99    97   ar
   130   114   115   ar
   131   114   112   ar
   132    74    76   ar
   133   115   113   ar
   134    92    93    1
   135   112   109   ar
   136    77    78   ar
   137    94    93    2
   138   113   111   ar
   139    76    78   ar
   140   109   111   ar
   141   109   107   ar
   142   111   110   ar
   143    78    79    1
   144   107   106    1
   145   107   108   ar
   146   106   103    1
   147   110   108   ar
   148   105   104    2
   149   102   103    1
   150   103   104    1
