@<TRIPOS>MOLECULE
tmp/1ef9A00.pdb
 187 180 0 0 0
SMALL
GASTEIGER

@<TRIPOS>ATOM
      1  N        -15.4000  -31.3750   46.4330 N.3    24  LYS24      -0.1231
      2  CA       -14.5490  -31.0620   45.2930 C.3    24  LYS24       0.1693
      3  C        -13.6300  -29.8710   45.6330 C.2    24  LYS24       0.2591
      4  O        -13.1620  -29.1050   44.7810 O.2    24  LYS24      -0.2718
      5  CB       -15.3700  -30.7920   44.0390 C.3    24  LYS24       0.0285
      6  CG       -16.4550  -31.8220   43.8240 C.3    24  LYS24       0.0035
      7  CD       -15.9000  -33.1200   43.2640 C.3    24  LYS24       0.0206
      8  CE       -16.3980  -33.4270   41.8630 C.3    24  LYS24       0.1093
      9  NZ       -15.7000  -34.5650   41.2590 N.3    24  LYS24      -0.1314
     10  N        -13.3780  -29.6930   46.9190 N.am   25  LEU25      -0.1980
     11  CA       -12.5210  -28.6050   47.3580 C.3    25  LEU25       0.1596
     12  C        -12.9500  -27.1790   46.9090 C.2    25  LEU25       0.2287
     13  O        -12.2280  -26.2180   47.1010 O.2    25  LEU25      -0.2864
     14  CB       -11.1030  -28.9670   46.8900 C.3    25  LEU25       0.0297
     15  CG       -10.4180  -29.7920   47.9650 C.3    25  LEU25       0.0022
     16  CD1       -8.9560  -30.1000   47.6560 C.3    25  LEU25       0.0001
     17  CD2      -10.5370  -29.0530   49.2900 C.3    25  LEU25       0.0001
     18  N        -14.0160  -26.5500   43.7520 N.3    27  ALA27      -0.1245
     19  CA       -13.5490  -26.4130   42.4080 C.3    27  ALA27       0.1562
     20  C        -14.6730  -25.7110   41.6570 C.2    27  ALA27       0.2260
     21  O        -15.8100  -25.7910   42.0590 O.2    27  ALA27      -0.2867
     22  CB       -13.2740  -27.7950   41.8330 C.3    27  ALA27       0.0290
     23  N         -8.4190  -24.9590   51.9080 N.3    61  VAL61      -0.1245
     24  CA        -8.3430  -24.4890   50.5590 C.3    61  VAL61       0.1561
     25  C         -9.5650  -23.6850   50.1810 C.2    61  VAL61       0.2260
     26  O        -10.6880  -24.1460   50.2190 O.2    61  VAL61      -0.2867
     27  CB        -8.1690  -25.7060   49.6360 C.3    61  VAL61       0.0252
     28  CG1       -8.2530  -25.3960   48.1260 C.3    61  VAL61       0.0019
     29  CG2       -6.8350  -26.3490   49.9730 C.3    61  VAL61       0.0019
     30  N         -9.8580  -24.7360   44.5400 N.3    64  ALA64      -0.1231
     31  CA        -8.8100  -25.3780   43.7520 C.3    64  ALA64       0.1694
     32  C         -8.8410  -25.0300   42.2800 C.2    64  ALA64       0.2593
     33  O         -7.9940  -25.4310   41.4830 O.2    64  ALA64      -0.2718
     34  CB        -8.5550  -26.8320   44.0840 C.3    64  ALA64       0.0304
     35  N         -9.8410  -24.2440   41.9390 N.am   65  GLY65      -0.1942
     36  CA        -9.9410  -23.7810   40.5940 C.3    65  GLY65       0.2014
     37  C        -10.9140  -24.5240   39.7620 C.2    65  GLY65       0.2639
     38  O        -11.8350  -25.1070   40.2860 O.2    65  GLY65      -0.2714
     39  N        -10.6520  -24.4310   38.4660 N.am   66  HIS66      -0.1959
     40  CA       -11.4840  -25.0650   37.5000 C.3    66  HIS66       0.1787
     41  C        -11.4040  -26.5680   37.6710 C.2    66  HIS66       0.2620
     42  O        -10.4080  -27.1120   38.1590 O.2    66  HIS66      -0.2715
     43  CB       -10.9320  -24.6720   36.1410 C.3    66  HIS66       0.0785
     44  CG       -11.6500  -23.6200   35.3480 C.ar   66  HIS66       0.0821
     45  ND1      -10.9880  -22.4560   35.0010 N.ar   66  HIS66      -0.2267
     46  CD2      -12.8980  -23.5820   34.7990 C.ar   66  HIS66       0.1154
     47  CE1      -11.8230  -21.7240   34.2590 C.ar   66  HIS66       0.1986
     48  NE2      -12.9870  -22.3660   34.1380 N.ar   66  HIS66      -0.2212
     49  N        -12.4840  -27.2380   37.3170 N.am   67  ASP67      -0.1957
     50  CA       -12.5190  -28.6740   37.4170 C.3    67  ASP67       0.1840
     51  C        -11.9560  -29.2170   36.1280 C.2    67  ASP67       0.2622
     52  O        -12.5770  -29.1230   35.0670 O.2    67  ASP67      -0.2715
     53  CB       -13.9570  -29.1610   37.6370 C.3    67  ASP67       0.1450
     54  CG       -14.0400  -30.6480   37.7700 C.2    67  ASP67       0.3671
     55  OD1      -13.5620  -31.2650   38.7020 O.co2  67  ASP67      -0.2456
     56  OD2      -14.7010  -31.1980   36.7880 O.co2  67  ASP67      -0.2456
     57  N        -10.7550  -29.7590   36.2250 N.am   68  ILE68      -0.1963
     58  CA       -10.0850  -30.2810   35.0540 C.3    68  ILE68       0.1727
     59  C        -10.9270  -31.1130   34.1390 C.2    68  ILE68       0.2616
     60  O        -10.9740  -30.8610   32.9390 O.2    68  ILE68      -0.2715
     61  CB        -8.9280  -31.1300   35.4400 C.3    68  ILE68       0.0290
     62  CG1       -7.8060  -30.2410   35.9400 C.3    68  ILE68       0.0022
     63  CG2       -8.5060  -31.8950   34.1950 C.3    68  ILE68       0.0023
     64  CD1       -7.5830  -30.4000   37.4270 C.3    68  ILE68       0.0001
     65  N        -11.5490  -32.1180   34.7530 N.am   69  HIS69      -0.1973
     66  CA       -12.4150  -33.0240   34.0440 C.3    69  HIS69       0.1656
     67  C        -13.3960  -32.1980   33.1600 C.2    69  HIS69       0.2291
     68  O        -13.7190  -32.5270   32.0120 O.2    69  HIS69      -0.2864
     69  CB       -13.0480  -33.9780   35.0880 C.3    69  HIS69       0.0771
     70  CG       -12.1290  -34.4940   36.1870 C.ar   69  HIS69       0.0820
     71  ND1      -12.0080  -33.8810   37.4370 N.ar   69  HIS69      -0.2267
     72  CD2      -11.3330  -35.6020   36.2200 C.ar   69  HIS69       0.1154
     73  CE1      -11.1540  -34.6030   38.1690 C.ar   69  HIS69       0.1986
     74  NE2      -10.7300  -35.6470   37.4670 N.ar   69  HIS69      -0.2212
     75  N        -12.7590  -29.4720   31.8180 N.3    71  LEU71      -0.1245
     76  CA       -11.9960  -28.8190   30.7780 C.3    71  LEU71       0.1561
     77  C        -12.2680  -29.5350   29.4890 C.2    71  LEU71       0.2260
     78  O        -12.5830  -30.7270   29.4740 O.2    71  LEU71      -0.2867
     79  CB       -10.4840  -28.9330   30.9920 C.3    71  LEU71       0.0270
     80  CG        -9.8570  -27.6060   31.3930 C.3    71  LEU71       0.0019
     81  CD1      -10.9350  -26.6560   31.8790 C.3    71  LEU71       0.0001
     82  CD2       -8.8450  -27.8030   32.5150 C.3    71  LEU71       0.0001
     83  N        -12.0680  -21.7890   27.4000 N.3    79  LEU79      -0.1245
     84  CA       -12.2550  -20.4340   27.9320 C.3    79  LEU79       0.1561
     85  C        -13.2380  -19.6250   27.0630 C.2    79  LEU79       0.2260
     86  O        -13.1060  -18.3990   26.9380 O.2    79  LEU79      -0.2867
     87  CB       -10.9040  -19.6730   28.1440 C.3    79  LEU79       0.0270
     88  CG       -10.0450  -20.2110   29.2960 C.3    79  LEU79       0.0019
     89  CD1       -8.5980  -20.4140   28.8570 C.3    79  LEU79       0.0001
     90  CD2      -10.1030  -19.2710   30.4960 C.3    79  LEU79       0.0001
     91  N         -5.9620  -21.5720   50.5750 N.3   106  SER106     -0.1217
     92  CA        -5.3670  -21.3560   49.2810 C.3   106  SER106      0.1889
     93  C         -6.3110  -21.1280   48.1180 C.2   106  SER106      0.2288
     94  O         -7.3910  -21.6950   48.0620 O.2   106  SER106     -0.2866
     95  CB        -4.2950  -22.3920   48.9800 C.3   106  SER106      0.2089
     96  OG        -4.8410  -23.6470   48.6330 O.3   106  SER106     -0.2183
     97  N         -6.4710  -21.0050   43.7910 N.3   108  TRP108     -0.1227
     98  CA        -5.7760  -21.4990   42.6390 C.3   108  TRP108      0.1737
     99  C         -6.3760  -21.1790   41.3130 C.2   108  TRP108      0.2596
    100  O         -7.5330  -21.4450   41.0420 O.2   108  TRP108     -0.2718
    101  CB        -5.7880  -23.0180   42.7380 C.3   108  TRP108      0.0564
    102  CG        -5.2200  -23.4670   44.0380 C.ar  108  TRP108      0.0003
    103  CD1       -5.8600  -23.6980   45.2140 C.ar  108  TRP108      0.0946
    104  CD2       -3.8480  -23.7010   44.2810 C.ar  108  TRP108      0.0152
    105  NE1       -4.9540  -24.0900   46.1760 N.ar  108  TRP108     -0.2442
    106  CE2       -3.7020  -24.1000   45.6270 C.ar  108  TRP108      0.0810
    107  CE3       -2.7280  -23.6200   43.4790 C.ar  108  TRP108      0.0012
    108  CZ2       -2.4560  -24.3890   46.1810 C.ar  108  TRP108      0.0191
    109  CZ3       -1.5040  -23.9440   44.0270 C.ar  108  TRP108      0.0001
    110  CH2       -1.3620  -24.3320   45.3580 C.ar  108  TRP108      0.0015
    111  N         -5.5450  -20.6390   40.4720 N.am  109  GLY109     -0.1942
    112  CA        -5.9530  -20.3190   39.1410 C.3   109  GLY109      0.2014
    113  C         -7.2030  -19.4940   39.0580 C.2   109  GLY109      0.2639
    114  O         -7.2670  -18.3980   39.5950 O.2   109  GLY109     -0.2714
    115  N         -8.1780  -20.0500   38.3460 N.am  110  GLY110     -0.1954
    116  CA        -9.4660  -19.4140   38.1300 C.3   110  GLY110      0.1869
    117  C        -10.0390  -18.7250   39.3680 C.2   110  GLY110      0.2309
    118  O        -10.7520  -17.7380   39.2110 O.2   110  GLY110     -0.2863
    119  N         -1.9990  -20.4420   37.9020 N.3   132  THR132     -0.1204
    120  CA        -1.2980  -21.6040   37.3700 C.3   132  THR132      0.1979
    121  C         -1.5360  -22.1260   35.9590 C.2   132  THR132      0.2459
    122  O         -1.2540  -23.3000   35.7310 O.2   132  THR132     -0.2732
    123  CB        -1.6300  -22.7630   38.3160 C.3   132  THR132      0.1783
    124  OG1       -3.0380  -22.8740   38.4160 O.3   132  THR132     -0.2211
    125  CG2       -1.0850  -22.5020   39.7100 C.3   132  THR132      0.0376
    126  N         -1.9970  -21.3360   35.0230 N.am  133  PRO133     -0.2728
    127  CA        -2.2180  -21.8550   33.6680 C.3   133  PRO133      0.1401
    128  C         -1.0110  -22.6270   33.0560 C.2   133  PRO133      0.2269
    129  O         -1.1230  -23.5760   32.2740 O.2   133  PRO133     -0.2865
    130  CB        -2.5550  -20.6070   32.8230 C.3   133  PRO133      0.0296
    131  CG        -2.2760  -19.3820   33.6800 C.3   133  PRO133      0.0237
    132  CD        -1.7660  -19.8730   35.0250 C.3   133  PRO133      0.0939
    133  N          1.2480  -24.5690   34.5750 N.3   135  ASN135     -0.1225
    134  CA         1.4570  -25.9130   35.0590 C.3   135  ASN135      0.1785
    135  C          0.7420  -26.9560   34.2810 C.2   135  ASN135      0.2597
    136  O          1.0700  -28.1060   34.4310 O.2   135  ASN135     -0.2718
    137  CB         0.9380  -26.0990   36.4660 C.3   135  ASN135      0.1169
    138  CG         1.9500  -25.5030   37.3810 C.2   135  ASN135      0.2627
    139  OD1        2.8980  -24.8610   36.9060 O.2   135  ASN135     -0.2716
    140  ND2        1.7580  -25.7030   38.6740 N.am  135  ASN135     -0.0877
    141  N         -0.2380  -26.5720   33.4910 N.am  136  LEU136     -0.1980
    142  CA        -0.9700  -27.5460   32.7300 C.3   136  LEU136      0.1596
    143  C         -0.8710  -27.2700   31.2580 C.2   136  LEU136      0.2287
    144  O         -1.3900  -28.0140   30.4300 O.2   136  LEU136     -0.2864
    145  CB        -2.4540  -27.4960   33.1120 C.3   136  LEU136      0.0297
    146  CG        -2.6970  -28.1210   34.4680 C.3   136  LEU136      0.0022
    147  CD1       -2.4170  -27.1240   35.5880 C.3   136  LEU136      0.0001
    148  CD2       -4.1200  -28.6510   34.5290 C.3   136  LEU136      0.0001
    149  N         -1.9920  -24.2720   29.8330 N.3   138  VAL138     -0.1245
    150  CA        -3.1970  -23.6320   29.3200 C.3   138  VAL138      0.1561
    151  C         -3.0540  -22.2150   28.7690 C.2   138  VAL138      0.2260
    152  O         -2.5510  -21.3100   29.4300 O.2   138  VAL138     -0.2867
    153  CB        -4.3260  -23.6330   30.3350 C.3   138  VAL138      0.0252
    154  CG1       -5.5590  -23.0010   29.6910 C.3   138  VAL138      0.0019
    155  CG2       -4.6540  -25.0540   30.8070 C.3   138  VAL138      0.0019
    156  N         -4.7150  -19.2740   28.5840 N.3   140  TYR140     -0.1241
    157  CA        -5.8210  -18.4850   29.1070 C.3   140  TYR140      0.1605
    158  C         -6.5010  -17.6070   28.0700 C.2   140  TYR140      0.2264
    159  O         -6.2600  -17.6540   26.8640 O.2   140  TYR140     -0.2867
    160  CB        -5.3090  -17.5300   30.1840 C.3   140  TYR140      0.0534
    161  CG        -6.1050  -17.6250   31.4460 C.ar  140  TYR140     -0.0201
    162  CD1       -5.8260  -18.6140   32.3870 C.ar  140  TYR140     -0.0009
    163  CD2       -7.1360  -16.7260   31.7200 C.ar  140  TYR140     -0.0009
    164  CE1       -6.5610  -18.7100   33.5700 C.ar  140  TYR140      0.0417
    165  CE2       -7.8810  -16.8050   32.8980 C.ar  140  TYR140      0.0417
    166  CZ        -7.5930  -17.8060   33.8280 C.ar  140  TYR140      0.1957
    167  OH        -8.3190  -17.8870   34.9950 O.3   140  TYR140     -0.2866
    168  N         -1.3570  -34.4420   35.4000 N.3   250  PHE250     -0.1241
    169  CA        -2.1940  -34.1610   36.5540 C.3   250  PHE250      0.1605
    170  C         -3.1130  -35.3290   36.9010 C.2   250  PHE250      0.2264
    171  O         -3.0460  -35.8680   38.0110 O.2   250  PHE250     -0.2867
    172  CB        -3.0530  -32.9030   36.3620 C.3   250  PHE250      0.0534
    173  CG        -3.6920  -32.4730   37.6680 C.ar  250  PHE250     -0.0203
    174  CD1       -5.0770  -32.3510   37.8210 C.ar  250  PHE250     -0.0042
    175  CD2       -2.8800  -32.1850   38.7640 C.ar  250  PHE250     -0.0042
    176  CE1       -5.6390  -31.9590   39.0360 C.ar  250  PHE250     -0.0003
    177  CE2       -3.4230  -31.7770   39.9830 C.ar  250  PHE250     -0.0003
    178  CZ        -4.8080  -31.6660   40.1200 C.ar  250  PHE250     -0.0000
    179  N         -1.5080  -37.6200   38.0150 N.3   253  LYS253     -0.1245
    180  CA        -0.7860  -37.0490   39.1230 C.3   253  LYS253      0.1561
    181  C          0.6720  -37.4600   39.0750 C.2   253  LYS253      0.2260
    182  O          1.1460  -38.2210   39.9270 O.2   253  LYS253     -0.2867
    183  CB        -1.4380  -37.3960   40.4490 C.3   253  LYS253      0.0271
    184  CG        -2.9610  -37.3210   40.3880 C.3   253  LYS253      0.0035
    185  CD        -3.5840  -36.3100   41.3480 C.3   253  LYS253      0.0206
    186  CE        -4.9320  -35.7690   40.8710 C.3   253  LYS253      0.1093
    187  NZ        -5.1970  -34.3940   41.3350 N.3   253  LYS253     -0.1314
@<TRIPOS>BOND
     1   159   158    2
     2    86    85    2
     3    85    84    1
     4    83    84    1
     5    84    87    1
     6   158   157    1
     7    87    88    1
     8   156   157    1
     9   151   150    1
    10   151   152    2
    11    89    88    1
    12   157   160    1
    13    88    90    1
    14   150   149    1
    15   150   153    1
    16    78    77    2
    17    77    76    1
    18   154   153    1
    19   160   161    1
    20   153   155    1
    21   144   143    2
    22    76    79    1
    23    76    75    1
    24    79    80    1
    25   143   142    1
    26    80    81    1
    27    80    82    1
    28   161   163   ar
    29   161   162   ar
    30   163   165   ar
    31    68    67    2
    32   129   128    2
    33   162   164   ar
    34   142   145    1
    35   142   141    1
    36   130   127    1
    37   130   131    1
    38   165   166   ar
    39    60    59    2
    40   128   127    1
    41   145   146    1
    42    67    66    1
    43   141   135   am
    44   164   166   ar
    45   127   126    1
    46   131   132    1
    47   166   167    1
    48    66    65    1
    49    66    69    1
    50    48    47   ar
    51    48    46   ar
    52    59    65   am
    53    59    58    1
    54    63    61    1
    55    47    45   ar
    56   135   136    2
    57   135   134    1
    58   146   148    1
    59   146   147    1
    60   133   134    1
    61    46    44   ar
    62    45    44   ar
    63   126   132    1
    64   126   121   am
    65    58    61    1
    66    58    57    1
    67   134   137    1
    68    52    51    2
    69    69    70    1
    70    44    43    1
    71   168   169    1
    72    61    62    1
    73   122   121    2
    74    62    64    1
    75   121   120    1
    76    51    57   am
    77    51    50    1
    78    43    40    1
    79    70    72   ar
    80    70    71   ar
    81    72    74   ar
    82   172   169    1
    83   172   173    1
    84   137   138    1
    85   169   170    1
    86    56    54   ar
    87   170   171    2
    88   139   138    2
    89    49    50    1
    90    49    41   am
    91   120   119    1
    92   120   123    1
    93   138   140   am
    94    50    53    1
    95    71    73   ar
    96    74    73   ar
    97    40    41    1
    98    40    39    1
    99    53    54    1
   100   173   174   ar
   101   173   175   ar
   102    41    42    2
   103    54    55   ar
   104   174   176   ar
   105   179   180    1
   106   116   115    1
   107   116   117    1
   108   123   124    1
   109   123   125    1
   110   115   113   am
   111    39    37   am
   112   175   177   ar
   113   176   178   ar
   114   113   112    1
   115   113   114    2
   116   181   180    1
   117   181   182    2
   118   180   183    1
   119   112   111    1
   120   118   117    2
   121    37    38    2
   122    37    36    1
   123   177   178   ar
   124   184   183    1
   125   184   185    1
   126   111    99   am
   127    36    35    1
   128   186   187    1
   129   186   185    1
   130   100    99    2
   131     9     8    1
   132    99    98    1
   133    33    32    2
   134    20    21    2
   135    20    19    1
   136    22    19    1
   137     8     7    1
   138    35    32   am
   139    32    31    1
   140    19    18    1
   141    98   101    1
   142    98    97    1
   143   101   102    1
   144     7     6    1
   145   107   109   ar
   146   107   104   ar
   147    31    34    1
   148    31    30    1
   149     6     5    1
   150   109   110   ar
   151   102   104   ar
   152   102   103   ar
   153     5     2    1
   154   104   106   ar
   155     4     3    2
   156   103   105   ar
   157     2     3    1
   158     2     1    1
   159   110   108   ar
   160   106   105   ar
   161   106   108   ar
   162     3    10   am
   163    14    11    1
   164    14    15    1
   165    12    13    2
   166    12    11    1
   167    10    11    1
   168    16    15    1
   169    15    17    1
   170    94    93    2
   171    93    92    1
   172    28    27    1
   173    96    95    1
   174    95    92    1
   175    92    91    1
   176    27    29    1
   177    27    24    1
   178    25    26    2
   179    25    24    1
   180    24    23    1
