@<TRIPOS>MOLECULE
tmp/1efaD00.pdb
 177 167 0 0 0
SMALL
GASTEIGER

@<TRIPOS>ATOM
      1  N          2.2000   84.8000   17.3310 N.3    68  SER68      -0.1217
      2  CA         1.6650   83.4590   17.5250 C.3    68  SER68       0.1889
      3  C          0.2700   83.6950   18.1120 C.2    68  SER68       0.2288
      4  O         -0.0340   84.8010   18.5750 O.2    68  SER68      -0.2866
      5  CB         2.4880   82.6890   18.5530 C.3    68  SER68       0.2089
      6  OG         3.8640   82.7060   18.2420 O.3    68  SER68      -0.2183
      7  N         -2.3460   82.0550   23.5770 N.3    72  LEU72      -0.1231
      8  CA        -1.2400   81.6000   24.4090 C.3    72  LEU72       0.1693
      9  C         -0.8570   82.7210   25.3430 C.2    72  LEU72       0.2592
     10  O         -0.8840   83.8960   24.9650 O.2    72  LEU72      -0.2718
     11  CB        -0.0470   81.2140   23.5330 C.3    72  LEU72       0.0284
     12  CG        -0.3480   80.0860   22.5410 C.3    72  LEU72       0.0019
     13  CD1        0.6390   80.1230   21.3480 C.3    72  LEU72       0.0001
     14  CD2       -0.2940   78.7740   23.2950 C.3    72  LEU72       0.0001
     15  N         -0.4670   82.3560   26.5520 N.am   73  HIS73      -0.1962
     16  CA        -0.1180   83.3370   27.5480 C.3    73  HIS73       0.1787
     17  C          0.8620   84.4270   27.1530 C.2    73  HIS73       0.2620
     18  O          0.4750   85.5840   27.0060 O.2    73  HIS73      -0.2715
     19  CB         0.3900   82.6520   28.8150 C.3    73  HIS73       0.0785
     20  CG         0.5320   83.5860   29.9780 C.ar   73  HIS73       0.0821
     21  ND1       -0.5540   84.1740   30.5940 N.ar   73  HIS73      -0.2267
     22  CD2        1.6310   84.1110   30.5730 C.ar   73  HIS73       0.1154
     23  CE1       -0.1310   85.0240   31.5120 C.ar   73  HIS73       0.1986
     24  NE2        1.1900   85.0070   31.5200 N.ar   73  HIS73      -0.2212
     25  N          2.1320   84.0810   26.9830 N.am   74  ALA74      -0.1964
     26  CA         3.1290   85.0990   26.6680 C.3    74  ALA74       0.1713
     27  C          2.7880   86.0240   25.4950 C.2    74  ALA74       0.2458
     28  O          2.9260   87.2480   25.6050 O.2    74  ALA74      -0.2730
     29  CB         4.4930   84.4530   26.4610 C.3    74  ALA74       0.0333
     30  N          2.3450   85.4590   24.3590 N.am   75  PRO75      -0.2727
     31  CA         2.0050   86.2980   23.2050 C.3    75  PRO75       0.1402
     32  C          0.9290   87.3430   23.5500 C.2    75  PRO75       0.2269
     33  O          1.0550   88.5220   23.1810 O.2    75  PRO75      -0.2865
     34  CB         1.5120   85.2910   22.1700 C.3    75  PRO75       0.0296
     35  CG         2.1870   84.0290   22.5550 C.3    75  PRO75       0.0237
     36  CD         2.1510   84.0330   24.0530 C.3    75  PRO75       0.0939
     37  N          2.3960   89.9950   25.6540 N.3    78  ILE78      -0.1245
     38  CA         3.2940   90.8220   24.8570 C.3    78  ILE78       0.1561
     39  C          2.5420   91.8010   23.9530 C.2    78  ILE78       0.2260
     40  O          2.8540   92.9870   23.9330 O.2    78  ILE78      -0.2867
     41  CB         4.2730   89.9250   24.0340 C.3    78  ILE78       0.0252
     42  CG1        5.3000   89.2940   24.9870 C.3    78  ILE78       0.0019
     43  CG2        5.0000   90.7400   22.9760 C.3    78  ILE78       0.0019
     44  CD1        5.9680   88.0240   24.4560 C.3    78  ILE78       0.0001
     45  N          6.7120   88.2240   16.4350 N.3   124  ASN124     -0.1240
     46  CA         6.7490   87.4270   17.6430 C.3   124  ASN124      0.1653
     47  C          6.2210   86.0740   17.2150 C.2   124  ASN124      0.2266
     48  O          5.0850   85.6910   17.5290 O.2   124  ASN124     -0.2867
     49  CB         5.8500   88.0100   18.7220 C.3   124  ASN124      0.1155
     50  CG         5.8340   87.1590   19.9800 C.2   124  ASN124      0.2627
     51  OD1        5.0220   87.3800   20.8720 O.2   124  ASN124     -0.2716
     52  ND2        6.7340   86.1850   20.0560 N.am  124  ASN124     -0.0877
     53  N         11.2530   88.6480   18.1630 N.3   147  LEU147     -0.1231
     54  CA        11.1580   88.3040   19.5800 C.3   147  LEU147      0.1693
     55  C         11.2000   86.7970   19.8420 C.2   147  LEU147      0.2592
     56  O         11.2580   86.3680   20.9910 O.2   147  LEU147     -0.2718
     57  CB         9.8800   88.8840   20.1920 C.3   147  LEU147      0.0284
     58  CG         9.5910   90.3770   20.0170 C.3   147  LEU147      0.0019
     59  CD1        8.4390   90.7780   20.9130 C.3   147  LEU147      0.0001
     60  CD2       10.8010   91.1900   20.3740 C.3   147  LEU147      0.0001
     61  N         11.1590   85.9860   18.7930 N.am  148  ASP148     -0.1974
     62  CA        11.2250   84.5470   18.9960 C.3   148  ASP148      0.1709
     63  C         12.2490   83.8800   18.0590 C.2   148  ASP148      0.2293
     64  O         11.9250   82.9960   17.2590 O.2   148  ASP148     -0.2864
     65  CB         9.8430   83.9010   18.8420 C.3   148  ASP148      0.1436
     66  CG         9.7860   82.4990   19.4460 C.2   148  ASP148      0.3671
     67  OD1       10.8190   82.0410   19.9850 O.co2 148  ASP148     -0.2456
     68  OD2        8.7170   81.8510   19.3940 O.co2 148  ASP148     -0.2456
     69  N         15.1530   89.4550   23.2440 N.3   159  ILE159     -0.1231
     70  CA        14.7030   88.2540   23.9260 C.3   159  ILE159      0.1692
     71  C         15.1780   88.2720   25.3510 C.2   159  ILE159      0.2592
     72  O         16.0760   89.0190   25.7070 O.2   159  ILE159     -0.2718
     73  CB        15.2330   86.9780   23.2510 C.3   159  ILE159      0.0266
     74  CG1       16.7620   86.9470   23.3140 C.3   159  ILE159      0.0019
     75  CG2       14.7670   86.9270   21.8130 C.3   159  ILE159      0.0020
     76  CD1       17.3660   85.7110   22.6860 C.3   159  ILE159      0.0001
     77  N         14.5580   87.4580   26.1820 N.am  160  PHE160     -0.1976
     78  CA        14.9840   87.3930   27.5560 C.3   160  PHE160      0.1639
     79  C         16.2540   86.5600   27.5860 C.2   160  PHE160      0.2290
     80  O         16.4580   85.6720   26.7510 O.2   160  PHE160     -0.2864
     81  CB        13.8910   86.7740   28.4190 C.3   160  PHE160      0.0560
     82  CG        12.7680   87.7190   28.7190 C.ar  160  PHE160     -0.0200
     83  CD1       11.5300   87.5650   28.1130 C.ar  160  PHE160     -0.0042
     84  CD2       12.9680   88.8020   29.5820 C.ar  160  PHE160     -0.0042
     85  CE1       10.5030   88.4750   28.3520 C.ar  160  PHE160     -0.0003
     86  CE2       11.9450   89.7140   29.8260 C.ar  160  PHE160     -0.0003
     87  CZ        10.7070   89.5450   29.2070 C.ar  160  PHE160     -0.0000
     88  N          9.5670   75.3160   19.0610 N.3   190  SER190     -0.1217
     89  CA         9.7010   76.6650   19.5940 C.3   190  SER190      0.1889
     90  C         11.1610   77.0370   19.8490 C.2   190  SER190      0.2288
     91  O         11.8710   76.3550   20.5950 O.2   190  SER190     -0.2866
     92  CB         8.9140   76.7850   20.9070 C.3   190  SER190      0.2089
     93  OG         9.2530   77.9710   21.6110 O.3   190  SER190     -0.2183
     94  N         12.3320   79.5440   21.5450 N.3   192  SER192     -0.1217
     95  CA        12.4720   79.8780   22.9530 C.3   192  SER192      0.1889
     96  C         12.6030   78.6300   23.8060 C.2   192  SER192      0.2288
     97  O         13.3900   78.5920   24.7480 O.2   192  SER192     -0.2866
     98  CB        11.2750   80.6900   23.4070 C.3   192  SER192      0.2089
     99  OG        11.5680   81.3210   24.6270 O.3   192  SER192     -0.2183
    100  N         16.0130   77.4470   26.0610 N.3   196  ARG196     -0.1245
    101  CA        15.9940   77.1120   27.4750 C.3   196  ARG196      0.1563
    102  C         16.5590   75.7200   27.6670 C.2   196  ARG196      0.2260
    103  O         17.3180   75.4840   28.5950 O.2   196  ARG196     -0.2867
    104  CB        14.5690   77.1980   28.0290 C.3   196  ARG196      0.0307
    105  CG        14.0110   78.6140   28.0100 C.3   196  ARG196      0.0489
    106  CD        12.5460   78.6700   28.3920 C.3   196  ARG196      0.2205
    107  NE        11.9440   79.9060   27.9030 N.pl3 196  ARG196     -0.0865
    108  CZ        10.6470   80.1890   27.9700 C.cat 196  ARG196      0.5346
    109  NH1        9.8050   79.3230   28.5110 N.pl3 196  ARG196      0.1354
    110  NH2       10.1890   81.3360   27.4830 N.pl3 196  ARG196      0.1354
    111  N          3.7060   73.3310   26.2710 N.3   219  TRP219     -0.1241
    112  CA         3.4080   74.5690   26.9890 C.3   219  TRP219      0.1605
    113  C          2.2000   74.4490   27.9000 C.2   219  TRP219      0.2264
    114  O          2.0720   75.1880   28.8650 O.2   219  TRP219     -0.2867
    115  CB         3.1760   75.7210   26.0110 C.3   219  TRP219      0.0550
    116  CG         4.3700   76.1670   25.2370 C.ar  219  TRP219      0.0003
    117  CD1        4.3980   76.4900   23.9160 C.ar  219  TRP219      0.0946
    118  CD2        5.6590   76.5230   25.7620 C.ar  219  TRP219      0.0152
    119  NE1        5.6120   77.0430   23.5850 N.ar  219  TRP219     -0.2442
    120  CE2        6.4050   77.0730   24.7000 C.ar  219  TRP219      0.0810
    121  CE3        6.2520   76.4360   27.0280 C.ar  219  TRP219      0.0012
    122  CZ2        7.7140   77.5400   24.8620 C.ar  219  TRP219      0.0191
    123  CZ3        7.5590   76.9060   27.1950 C.ar  219  TRP219      0.0001
    124  CH2        8.2720   77.4500   26.1130 C.ar  219  TRP219      0.0015
    125  N          8.0290   76.2850   31.5590 N.3   245  ASN245     -0.1240
    126  CA         7.0920   77.3590   31.8870 C.3   245  ASN245      0.1653
    127  C          6.2160   76.9830   33.0750 C.2   245  ASN245      0.2266
    128  O          6.1050   75.8110   33.4250 O.2   245  ASN245     -0.2867
    129  CB         6.2220   77.7280   30.6780 C.3   245  ASN245      0.1155
    130  CG         5.1200   76.7350   30.4130 C.2   245  ASN245      0.2627
    131  OD1        5.1510   75.6110   30.9050 O.2   245  ASN245     -0.2716
    132  ND2        4.1330   77.1450   29.6110 N.am  245  ASN245     -0.0877
    133  N          2.9510   76.9410   33.4580 N.3   247  GLN247     -0.1245
    134  CA         1.8320   76.0570   33.2210 C.3   247  GLN247      0.1566
    135  C          2.2110   74.5840   33.2160 C.2   247  GLN247      0.2260
    136  O          1.4910   73.7690   33.7980 O.2   247  GLN247     -0.2867
    137  CB         1.1270   76.4520   31.9350 C.3   247  GLN247      0.0367
    138  CG         0.3600   77.7360   32.1290 C.3   247  GLN247      0.0905
    139  CD         0.0670   78.4560   30.8430 C.2   247  GLN247      0.2608
    140  OE1        0.8980   79.2230   30.3290 O.2   247  GLN247     -0.2717
    141  NE2       -1.1170   78.2140   30.3040 N.am  247  GLN247     -0.0878
    142  N          8.5860   81.8910   33.6670 N.3   273  ASP273     -0.1239
    143  CA         7.6280   82.9700   33.3220 C.3   273  ASP273      0.1674
    144  C          7.3170   83.8810   34.4910 C.2   273  ASP273      0.2266
    145  O          7.3980   85.1010   34.3910 O.2   273  ASP273     -0.2867
    146  CB         6.2520   82.4550   32.8810 C.3   273  ASP273      0.1410
    147  CG         6.2150   81.9570   31.4480 C.2   273  ASP273      0.3668
    148  OD1        7.1650   82.2430   30.6690 O.co2 273  ASP273     -0.2456
    149  OD2        5.2020   81.2810   31.1190 O.co2 273  ASP273     -0.2456
    150  N          9.9020   86.5840   33.8350 N.3   290  GLN290     -0.1245
    151  CA        10.0510   87.2020   32.5240 C.3   290  GLN290      0.1566
    152  C          9.0350   88.3300   32.4540 C.2   290  GLN290      0.2260
    153  O          7.8430   88.0870   32.2860 O.2   290  GLN290     -0.2867
    154  CB         9.7680   86.2070   31.4150 C.3   290  GLN290      0.0367
    155  CG        10.7750   85.0980   31.3360 C.3   290  GLN290      0.0905
    156  CD        10.6540   84.3670   30.0400 C.2   290  GLN290      0.2608
    157  OE1       11.5390   84.4420   29.1910 O.2   290  GLN290     -0.2717
    158  NE2        9.5360   83.6710   29.8560 N.am  290  GLN290     -0.0878
    159  N          7.0080   90.4990   30.8310 N.3   292  PHE292     -0.1241
    160  CA         6.4240   90.7210   29.5220 C.3   292  PHE292      0.1605
    161  C          6.0940   92.1840   29.2260 C.2   292  PHE292      0.2264
    162  O          6.1940   92.6190   28.0780 O.2   292  PHE292     -0.2867
    163  CB         5.1780   89.8660   29.3550 C.3   292  PHE292      0.0534
    164  CG         5.4320   88.3990   29.4920 C.ar  292  PHE292     -0.0203
    165  CD1        4.8200   87.6690   30.4990 C.ar  292  PHE292     -0.0042
    166  CD2        6.2820   87.7440   28.6170 C.ar  292  PHE292     -0.0042
    167  CE1        5.0470   86.3130   30.6360 C.ar  292  PHE292     -0.0003
    168  CE2        6.5130   86.3870   28.7490 C.ar  292  PHE292     -0.0003
    169  CZ         5.8950   85.6720   29.7620 C.ar  292  PHE292     -0.0000
    170  N          9.1800   93.6370   27.8960 N.3   295  LEU295     -0.1245
    171  CA         9.4880   93.1950   26.5510 C.3   295  LEU295      0.1561
    172  C          8.6820   93.9920   25.5200 C.2   295  LEU295      0.2260
    173  O          9.2500   94.5040   24.5570 O.2   295  LEU295     -0.2867
    174  CB         9.2230   91.6920   26.3980 C.3   295  LEU295      0.0270
    175  CG         9.3760   91.1470   24.9750 C.3   295  LEU295      0.0019
    176  CD1       10.8000   91.3750   24.4990 C.3   295  LEU295      0.0001
    177  CD2        9.0030   89.6650   24.9310 C.3   295  LEU295      0.0001
@<TRIPOS>BOND
     1    45    46    1
     2    47    48    2
     3    47    46    1
     4    64    63    2
     5     1     2    1
     6     2     3    1
     7     2     5    1
     8    46    49    1
     9    63    62    1
    10     3     4    2
    11    53    54    1
    12     6     5    1
    13    49    50    1
    14    61    62    1
    15    61    55   am
    16    65    62    1
    17    65    66    1
    18    88    89    1
    19    68    66   ar
    20    66    67   ar
    21    54    55    1
    22    54    57    1
    23    89    90    1
    24    89    92    1
    25    55    56    2
    26    90    91    2
    27    50    52   am
    28    50    51    2
    29    58    57    1
    30    58    60    1
    31    58    59    1
    32    92    93    1
    33    13    12    1
    34    94    95    1
    35    75    73    1
    36    34    35    1
    37    34    31    1
    38    12    14    1
    39    12    11    1
    40    35    36    1
    41    76    74    1
    42    95    98    1
    43    95    96    1
    44    43    41    1
    45    33    32    2
    46    31    32    1
    47    31    30    1
    48    69    70    1
    49    73    74    1
    50    73    70    1
    51    98    99    1
    52    11     8    1
    53     7     8    1
    54   119   117   ar
    55   119   120   ar
    56    96    97    2
    57   117   116   ar
    58    70    71    1
    59    40    39    2
    60    39    38    1
    61    41    38    1
    62    41    42    1
    63    36    30    1
    64    30    27   am
    65     8     9    1
    66    44    42    1
    67   176   175    1
    68   173   172    2
    69   120   122   ar
    70   120   118   ar
    71    38    37    1
    72   122   124   ar
    73   177   175    1
    74    10     9    2
    75   175   174    1
    76   116   118   ar
    77   116   115    1
    78     9    15   am
    79    71    72    2
    80    71    77   am
    81    27    28    2
    82    27    26    1
    83   172   171    1
    84   118   121   ar
    85   115   112    1
    86   100   101    1
    87   124   123   ar
    88    77    78    1
    89   111   112    1
    90   174   171    1
    91    29    26    1
    92   171   170    1
    93    15    16    1
    94    26    25    1
    95    80    79    2
    96    25    17   am
    97   112   113    1
    98    18    17    2
    99   121   123   ar
   100    17    16    1
   101   101   102    1
   102   101   104    1
   103   110   108    1
   104    16    19    1
   105    78    79    1
   106    78    81    1
   107   102   103    2
   108   113   114    2
   109   107   108    2
   110   107   106    1
   111   108   109    1
   112   105   104    1
   113   105   106    1
   114   162   161    2
   115    83    85   ar
   116    83    82   ar
   117    85    87   ar
   118    81    82    1
   119   166   168   ar
   120   166   164   ar
   121    82    84   ar
   122   168   169   ar
   123    19    20    1
   124   157   156    2
   125    87    86   ar
   126   161   160    1
   127   163   164    1
   128   163   160    1
   129   164   165   ar
   130   160   159    1
   131    84    86   ar
   132   132   130   am
   133   169   167   ar
   134   158   156   am
   135    20    22   ar
   136    20    21   ar
   137   156   155    1
   138   141   139   am
   139   140   139    2
   140   130   129    1
   141   130   131    2
   142   165   167   ar
   143    22    24   ar
   144    21    23   ar
   145   148   147   ar
   146   129   126    1
   147   139   138    1
   148   149   147   ar
   149   155   154    1
   150   154   151    1
   151   147   146    1
   152    23    24   ar
   153   125   126    1
   154   126   127    1
   155   137   138    1
   156   137   134    1
   157   153   152    2
   158   152   151    1
   159   151   150    1
   160   146   143    1
   161   127   128    2
   162   135   134    1
   163   135   136    2
   164   134   133    1
   165   143   142    1
   166   143   144    1
   167   145   144    2
