@<TRIPOS>MOLECULE
tmp/1efdA00.pdb
 148 149 0 0 0
SMALL
GASTEIGER

@<TRIPOS>ATOM
      1  N         24.8650   14.9750   21.9360 N.3    11  GLU11      -0.1231
      2  CA        25.0450   14.5370   23.3160 C.3    11  GLU11       0.1699
      3  C         24.5230   15.6720   24.1930 C.2    11  GLU11       0.2592
      4  O         24.4780   16.8180   23.7470 O.2    11  GLU11      -0.2718
      5  CB        26.5280   14.2480   23.5820 C.3    11  GLU11       0.0402
      6  CG        26.7720   13.1310   24.5880 C.3    11  GLU11       0.1161
      7  CD        26.4150   13.5420   25.9950 C.2    11  GLU11       0.3649
      8  OE1       27.1120   14.4170   26.5480 O.co2  11  GLU11      -0.2457
      9  OE2       25.4330   13.0000   26.5430 O.co2  11  GLU11      -0.2457
     10  N         24.1280   15.3640   25.4280 N.am   12  TRP12      -0.1976
     11  CA        23.5550   16.3750   26.3130 C.3    12  TRP12       0.1640
     12  C         24.5030   17.4050   26.9170 C.2    12  TRP12       0.2290
     13  O         24.0500   18.4560   27.3760 O.2    12  TRP12      -0.2864
     14  CB        22.7360   15.7020   27.4210 C.3    12  TRP12       0.0576
     15  CG        21.6710   14.7760   26.8850 C.ar   12  TRP12       0.0006
     16  CD1       21.0500   14.8570   25.6660 C.ar   12  TRP12       0.0946
     17  CD2       21.1290   13.6190   27.5340 C.ar   12  TRP12       0.0152
     18  NE1       20.1640   13.8190   25.5140 N.ar   12  TRP12      -0.2442
     19  CE2       20.1900   13.0430   26.6440 C.ar   12  TRP12       0.0810
     20  CE3       21.3440   13.0110   28.7800 C.ar   12  TRP12       0.0012
     21  CZ2       19.4670   11.8830   26.9590 C.ar   12  TRP12       0.0191
     22  CZ3       20.6270   11.8580   29.0960 C.ar   12  TRP12       0.0001
     23  CH2       19.6980   11.3050   28.1860 C.ar   12  TRP12       0.0015
     24  N         16.4210   12.6800   32.5430 N.3    37  TRP37      -0.1241
     25  CA        17.7100   12.8480   33.2230 C.3    37  TRP37       0.1605
     26  C         18.2560   14.2690   33.4010 C.2    37  TRP37       0.2264
     27  O         18.8570   14.5780   34.4330 O.2    37  TRP37      -0.2867
     28  CB        18.7760   12.0050   32.5240 C.3    37  TRP37       0.0550
     29  CG        18.5090   10.5460   32.5650 C.ar   37  TRP37       0.0003
     30  CD1       17.7500    9.8190   31.6900 C.ar   37  TRP37       0.0946
     31  CD2       19.0150    9.6170   33.5280 C.ar   37  TRP37       0.0152
     32  NE1       17.7580    8.4890   32.0480 N.ar   37  TRP37      -0.2442
     33  CE2       18.5260    8.3380   33.1740 C.ar   37  TRP37       0.0810
     34  CE3       19.8390    9.7400   34.6560 C.ar   37  TRP37       0.0012
     35  CZ2       18.8380    7.1870   33.9070 C.ar   37  TRP37       0.0191
     36  CZ3       20.1490    8.5950   35.3860 C.ar   37  TRP37       0.0001
     37  CH2       19.6490    7.3350   35.0050 C.ar   37  TRP37       0.0015
     38  N         21.8450    9.0710   21.3910 N.3    53  ARG53      -0.1231
     39  CA        23.1690    9.6760   21.3440 C.3    53  ARG53       0.1694
     40  C         24.1820    8.6360   20.8930 C.2    53  ARG53       0.2592
     41  O         25.1880    8.9680   20.2800 O.2    53  ARG53      -0.2718
     42  CB        23.5620   10.2150   22.7220 C.3    53  ARG53       0.0321
     43  CG        22.5960   11.2470   23.2640 C.3    53  ARG53       0.0489
     44  CD        22.0520   10.7970   24.5970 C.3    53  ARG53       0.2205
     45  NE        23.0190   10.9750   25.6620 N.pl3  53  ARG53      -0.0865
     46  CZ        23.1090   10.2170   26.7490 C.cat  53  ARG53       0.5346
     47  NH1       22.2930    9.1910   26.9440 N.pl3  53  ARG53       0.1354
     48  NH2       24.0200   10.5080   27.6600 N.pl3  53  ARG53       0.1354
     49  N         23.8940    7.3700   21.1830 N.am   54  THR54      -0.1953
     50  CA        24.7830    6.2670   20.8240 C.3    54  THR54       0.1897
     51  C         24.5290    5.6750   19.4380 C.2    54  THR54       0.2313
     52  O         25.3970    5.0120   18.8780 O.2    54  THR54      -0.2863
     53  CB        24.6800    5.1300   21.8530 C.3    54  THR54       0.1794
     54  OG1       23.3000    4.7960   22.0550 O.3    54  THR54      -0.2208
     55  CG2       25.3020    5.5550   23.1780 C.3    54  THR54       0.0378
     56  N         32.6080    9.7470   23.6450 N.3    75  TYR75      -0.1241
     57  CA        31.2760    9.1740   23.8060 C.3    75  TYR75       0.1605
     58  C         30.5200    9.1080   22.4760 C.2    75  TYR75       0.2264
     59  O         30.6110   10.0150   21.6500 O.2    75  TYR75      -0.2867
     60  CB        30.4620   10.0140   24.7980 C.3    75  TYR75       0.0534
     61  CG        29.0770    9.4670   25.0660 C.ar   75  TYR75      -0.0201
     62  CD1       28.8270    8.6600   26.1730 C.ar   75  TYR75      -0.0009
     63  CD2       28.0220    9.7240   24.1880 C.ar   75  TYR75      -0.0009
     64  CE1       27.5560    8.1210   26.4020 C.ar   75  TYR75       0.0417
     65  CE2       26.7560    9.1920   24.4010 C.ar   75  TYR75       0.0417
     66  CZ        26.5260    8.3940   25.5090 C.ar   75  TYR75       0.1957
     67  OH        25.2640    7.8890   25.7340 O.3    75  TYR75      -0.2866
     68  N         20.6600    3.0280   39.5810 N.3   152  ILE152     -0.1245
     69  CA        20.6760    2.5470   38.2030 C.3   152  ILE152      0.1561
     70  C         19.6150    1.4470   38.0920 C.2   152  ILE152      0.2260
     71  O         18.7700    1.4640   37.1980 O.2   152  ILE152     -0.2867
     72  CB        22.0550    1.9770   37.8280 C.3   152  ILE152      0.0252
     73  CG1       23.1030    3.0830   37.9190 C.3   152  ILE152      0.0019
     74  CG2       22.0250    1.4110   36.4200 C.3   152  ILE152      0.0019
     75  CD1       22.7290    4.3350   37.1390 C.3   152  ILE152      0.0001
     76  N         24.8470    4.4430   41.7440 N.3   158  LEU158     -0.1245
     77  CA        25.9930    5.2100   41.2770 C.3   158  LEU158      0.1561
     78  C         26.3120    6.1620   42.4120 C.2   158  LEU158      0.2260
     79  O         25.4080    6.6490   43.0980 O.2   158  LEU158     -0.2867
     80  CB        25.6780    6.0580   40.0430 C.3   158  LEU158      0.0270
     81  CG        25.8700    5.5180   38.6330 C.3   158  LEU158      0.0019
     82  CD1       25.8530    6.7120   37.6820 C.3   158  LEU158      0.0001
     83  CD2       27.1890    4.7730   38.5050 C.3   158  LEU158      0.0001
     84  N         35.2350    6.7060   37.4670 N.3   184  ASN184     -0.1240
     85  CA        35.6700    6.6400   36.0860 C.3   184  ASN184      0.1653
     86  C         35.9690    8.0820   35.6590 C.2   184  ASN184      0.2266
     87  O         35.9370    9.0130   36.4780 O.2   184  ASN184     -0.2867
     88  CB        34.5970    6.0080   35.1800 C.3   184  ASN184      0.1155
     89  CG        33.2380    6.6750   35.3040 C.2   184  ASN184      0.2627
     90  OD1       33.1210    7.8060   35.7650 O.2   184  ASN184     -0.2716
     91  ND2       32.2000    5.9710   34.8750 N.am  184  ASN184     -0.0877
     92  N         34.2210   10.0670   34.1320 N.3   186  TRP186     -0.1241
     93  CA        33.0450   10.9070   34.3260 C.3   186  TRP186      0.1605
     94  C         32.7430   11.2900   35.7690 C.2   186  TRP186      0.2264
     95  O         31.8150   12.0580   36.0210 O.2   186  TRP186     -0.2867
     96  CB        31.8280   10.2350   33.6840 C.3   186  TRP186      0.0550
     97  CG        32.0490    9.9650   32.2310 C.ar  186  TRP186      0.0003
     98  CD1       32.7010    8.8900   31.6830 C.ar  186  TRP186      0.0946
     99  CD2       31.7240   10.8360   31.1410 C.ar  186  TRP186      0.0152
    100  NE1       32.8070    9.0470   30.3200 N.ar  186  TRP186     -0.2442
    101  CE2       32.2160   10.2310   29.9610 C.ar  186  TRP186      0.0810
    102  CE3       31.0670   12.0720   31.0480 C.ar  186  TRP186      0.0012
    103  CZ2       32.0720   10.8210   28.6980 C.ar  186  TRP186      0.0191
    104  CZ3       30.9220   12.6610   29.7910 C.ar  186  TRP186      0.0001
    105  CH2       31.4250   12.0310   28.6320 C.ar  186  TRP186      0.0015
    106  N         32.0830    9.0260   38.4150 N.3   188  SER188     -0.1217
    107  CA        31.2140    8.1290   39.1580 C.3   188  SER188      0.1889
    108  C         31.6060    6.6680   39.0620 C.2   188  SER188      0.2288
    109  O         32.4860    6.2860   38.3000 O.2   188  SER188     -0.2866
    110  CB        29.7660    8.2860   38.6710 C.3   188  SER188      0.2089
    111  OG        29.6650    8.0490   37.2730 O.3   188  SER188     -0.2183
    112  N         21.5200   16.5980   35.7070 N.3   242  TRP242     -0.1227
    113  CA        22.4510   15.8790   34.8370 C.3   242  TRP242      0.1737
    114  C         23.8390   15.9200   35.4620 C.2   242  TRP242      0.2595
    115  O         24.3790   16.9930   35.7210 O.2   242  TRP242     -0.2718
    116  CB        22.4920   16.5010   33.4370 C.3   242  TRP242      0.0564
    117  CG        23.2530   15.6670   32.4400 C.ar  242  TRP242      0.0003
    118  CD1       24.1410   16.1150   31.4980 C.ar  242  TRP242      0.0946
    119  CD2       23.1690   14.2470   32.2660 C.ar  242  TRP242      0.0152
    120  NE1       24.6100   15.0620   30.7500 N.ar  242  TRP242     -0.2442
    121  CE2       24.0310   13.9050   31.1990 C.ar  242  TRP242      0.0810
    122  CE3       22.4470   13.2270   32.9090 C.ar  242  TRP242      0.0012
    123  CZ2       24.1920   12.5900   30.7600 C.ar  242  TRP242      0.0191
    124  CZ3       22.6080   11.9220   32.4730 C.ar  242  TRP242      0.0001
    125  CH2       23.4740   11.6140   31.4080 C.ar  242  TRP242      0.0015
    126  N         24.4220   14.7510   35.6950 N.am  243  PHE243     -0.1962
    127  CA        25.7310   14.6840   36.3350 C.3   243  PHE243      0.1771
    128  C         26.9140   14.8490   35.4010 C.2   243  PHE243      0.2619
    129  O         28.0380   15.0230   35.8610 O.2   243  PHE243     -0.2715
    130  CB        25.9020   13.3570   37.0690 C.3   243  PHE243      0.0574
    131  CG        24.6240   12.6110   37.2880 C.ar  243  PHE243     -0.0200
    132  CD1       24.2500   11.5890   36.4290 C.ar  243  PHE243     -0.0042
    133  CD2       23.8070   12.9190   38.3650 C.ar  243  PHE243     -0.0042
    134  CE1       23.0820   10.8800   36.6420 C.ar  243  PHE243     -0.0003
    135  CE2       22.6360   12.2180   38.5880 C.ar  243  PHE243     -0.0003
    136  CZ        22.2720   11.1950   37.7280 C.ar  243  PHE243     -0.0000
    137  N         26.6640   14.7980   34.1000 N.am  244  TYR244     -0.1974
    138  CA        27.7330   14.8960   33.1220 C.3   244  TYR244      0.1639
    139  C         27.6040   16.1040   32.1990 C.2   244  TYR244      0.2290
    140  O         28.0070   16.0460   31.0360 O.2   244  TYR244     -0.2864
    141  CB        27.7620   13.6000   32.3130 C.3   244  TYR244      0.0560
    142  CG        27.7010   12.3790   33.2020 C.ar  244  TYR244     -0.0198
    143  CD1       26.6710   11.4480   33.0760 C.ar  244  TYR244     -0.0009
    144  CD2       28.6660   12.1700   34.1960 C.ar  244  TYR244     -0.0009
    145  CE1       26.5960   10.3310   33.9190 C.ar  244  TYR244      0.0417
    146  CE2       28.6070   11.0600   35.0430 C.ar  244  TYR244      0.0417
    147  CZ        27.5700   10.1430   34.8980 C.ar  244  TYR244      0.1957
    148  OH        27.5280    9.0310   35.7110 O.3   244  TYR244     -0.2866
@<TRIPOS>BOND
     1    52    51    2
     2    51    50    1
     3    41    40    2
     4    50    49    1
     5    50    53    1
     6    40    49   am
     7    40    39    1
     8    39    38    1
     9    39    42    1
    10    59    58    2
    11    53    54    1
    12    53    55    1
    13     1     2    1
    14    58    57    1
    15    42    43    1
    16    43    44    1
    17     2     5    1
    18     2     3    1
    19     5     6    1
    20    56    57    1
    21     4     3    2
    22    57    60    1
    23    63    65   ar
    24    63    61   ar
    25     3    10   am
    26    65    66   ar
    27     6     7    1
    28    44    45    1
    29    60    61    1
    30    61    62   ar
    31    10    11    1
    32    66    67    1
    33    66    64   ar
    34    18    16   ar
    35    18    19   ar
    36    45    46    2
    37    16    15   ar
    38     7     9   ar
    39     7     8   ar
    40    62    64   ar
    41    11    12    1
    42    11    14    1
    43    19    21   ar
    44    19    17   ar
    45    46    47    1
    46    46    48    1
    47    15    14    1
    48    15    17   ar
    49    12    13    2
    50    21    23   ar
    51    17    20   ar
    52    23    22   ar
    53   105   103   ar
    54   105   104   ar
    55   103   101   ar
    56    20    22   ar
    57   104   102   ar
    58   101   100   ar
    59   101    99   ar
    60   100    98   ar
    61   120   121   ar
    62   120   118   ar
    63   123   121   ar
    64   123   125   ar
    65   140   139    2
    66   102    99   ar
    67    99    97   ar
    68   121   119   ar
    69   125   124   ar
    70   118   117   ar
    71    98    97   ar
    72    30    32   ar
    73    30    29   ar
    74    32    33   ar
    75   139   138    1
    76    97    96    1
    77   119   117   ar
    78   119   122   ar
    79   141   138    1
    80   141   142    1
    81   117   116    1
    82   124   122   ar
    83    28    29    1
    84    28    25    1
    85    24    25    1
    86    29    31   ar
    87   143   142   ar
    88   143   145   ar
    89   138   137    1
    90    33    31   ar
    91    33    35   ar
    92   142   144   ar
    93    25    26    1
    94    26    27    2
    95   116   113    1
    96    31    34   ar
    97    96    93    1
    98    35    37   ar
    99   145   147   ar
   100   137   128   am
   101    92    93    1
   102   144   146   ar
   103    93    94    1
   104    34    36   ar
   105   113   114    1
   106   113   112    1
   107    91    89   am
   108   147   146   ar
   109   147   148    1
   110    37    36   ar
   111    88    89    1
   112    88    85    1
   113    89    90    2
   114   128   129    2
   115   128   127    1
   116   114   126   am
   117   114   115    2
   118    86    85    1
   119    86    87    2
   120   126   127    1
   121    94    95    2
   122    85    84    1
   123   127   130    1
   124    74    72    1
   125   132   134   ar
   126   132   131   ar
   127   134   136   ar
   128   130   131    1
   129    75    73    1
   130    71    70    2
   131   111   110    1
   132   131   133   ar
   133    82    81    1
   134   136   135   ar
   135    72    73    1
   136    72    69    1
   137    70    69    1
   138    69    68    1
   139   109   108    2
   140   133   135   ar
   141   106   107    1
   142    83    81    1
   143    81    80    1
   144   110   107    1
   145   108   107    1
   146    80    77    1
   147    77    76    1
   148    77    78    1
   149    78    79    2
