@<TRIPOS>MOLECULE
tmp/1efiB00.pdb
 107 105 0 0 0
SMALL
GASTEIGER

@<TRIPOS>ATOM
      1  N        -14.0400  -12.0600   -6.8370 N.3    12  TYR12      -0.1227
      2  CA       -15.1090  -11.0830   -6.7220 C.3    12  TYR12       0.1736
      3  C        -15.5610  -10.4230   -8.0100 C.2    12  TYR12       0.2595
      4  O        -14.8550  -10.4070   -8.9920 O.2    12  TYR12      -0.2718
      5  CB       -14.7010   -9.9900   -5.7280 C.3    12  TYR12       0.0548
      6  CG       -14.3510  -10.5250   -4.3630 C.ar   12  TYR12      -0.0200
      7  CD1      -13.1310  -11.1610   -4.1380 C.ar   12  TYR12      -0.0009
      8  CD2      -15.2560  -10.4230   -3.2960 C.ar   12  TYR12      -0.0009
      9  CE1      -12.8130  -11.7010   -2.8770 C.ar   12  TYR12       0.0417
     10  CE2      -14.9510  -10.9540   -2.0370 C.ar   12  TYR12       0.0417
     11  CZ       -13.7250  -11.5950   -1.8410 C.ar   12  TYR12       0.1957
     12  OH       -13.4140  -12.1360   -0.6160 O.3    12  TYR12      -0.2866
     13  N        -16.7430   -9.8360   -7.9350 N.am   13  ARG13      -0.1966
     14  CA       -17.3780   -9.1350   -9.0350 C.3    13  ARG13       0.1729
     15  C        -17.0270   -7.6440   -8.9050 C.2    13  ARG13       0.2616
     16  O        -16.8200   -7.1500   -7.8010 O.2    13  ARG13      -0.2715
     17  CB       -18.8770   -9.3680   -8.8730 C.3    13  ARG13       0.0348
     18  CG       -19.8300   -8.6000   -9.7380 C.3    13  ARG13       0.0492
     19  CD       -21.2270   -8.7120   -9.0970 C.3    13  ARG13       0.2205
     20  NE       -22.3390   -8.5240  -10.0300 N.pl3  13  ARG13      -0.0865
     21  CZ       -22.4680   -7.5170  -10.8860 C.cat  13  ARG13       0.5346
     22  NH1      -21.5580   -6.5630  -10.9610 N.pl3  13  ARG13       0.1354
     23  NH2      -23.5250   -7.4760  -11.6950 N.pl3  13  ARG13       0.1354
     24  N        -16.9560   -6.9250  -10.0200 N.am   14  ASN14      -0.1972
     25  CA       -16.6400   -5.4950  -10.0210 C.3    14  ASN14       0.1688
     26  C        -15.2710   -5.1500   -9.4270 C.2    14  ASN14       0.2292
     27  O        -15.0850   -4.0640   -8.8490 O.2    14  ASN14      -0.2864
     28  CB       -17.6970   -4.6760   -9.2620 C.3    14  ASN14       0.1181
     29  CG       -19.1020   -5.0520   -9.6460 C.2    14  ASN14       0.2629
     30  OD1      -19.8970   -5.4780   -8.7970 O.2    14  ASN14      -0.2716
     31  ND2      -19.4270   -4.9180  -10.9220 N.am   14  ASN14      -0.0877
     32  N        -13.2550    2.8380    1.9450 N.3    51  GLU51      -0.1245
     33  CA       -14.5950    3.3380    2.1820 C.3    51  GLU51       0.1567
     34  C        -15.0020    3.5250    3.6400 C.2    51  GLU51       0.2260
     35  O        -14.4900    2.8650    4.5410 O.2    51  GLU51      -0.2867
     36  CB       -15.6190    2.3960    1.5630 C.3    51  GLU51       0.0388
     37  CG       -15.6800    2.4320    0.0650 C.3    51  GLU51       0.1160
     38  CD       -16.6460    1.4010   -0.4600 C.2    51  GLU51       0.3649
     39  OE1      -17.8590    1.6770   -0.4940 O.co2  51  GLU51      -0.2457
     40  OE2      -16.1970    0.2960   -0.8120 O.co2  51  GLU51      -0.2457
     41  N        -22.9230   -2.1440    3.2980 N.3    56  GLN56      -0.1231
     42  CA       -22.3600   -3.0940    2.3570 C.3    56  GLN56       0.1698
     43  C        -21.3060   -3.9870    2.9980 C.2    56  GLN56       0.2592
     44  O        -20.9510   -5.0100    2.4380 O.2    56  GLN56      -0.2718
     45  CB       -21.7880   -2.3820    1.1210 C.3    56  GLN56       0.0381
     46  CG       -20.4830   -1.5830    1.3230 C.3    56  GLN56       0.0905
     47  CD       -20.6870   -0.2040    1.9300 C.2    56  GLN56       0.2608
     48  OE1      -21.5830    0.0170    2.7450 O.2    56  GLN56      -0.2717
     49  NE2      -19.8180    0.7250    1.5680 N.am   56  GLN56      -0.0878
     50  N        -20.8440   -3.6220    4.1930 N.am   57  HIS57      -0.1962
     51  CA       -19.8360   -4.4010    4.8770 C.3    57  HIS57       0.1787
     52  C        -20.4540   -5.4150    5.8350 C.2    57  HIS57       0.2620
     53  O        -21.5280   -5.1730    6.3910 O.2    57  HIS57      -0.2715
     54  CB       -18.8840   -3.4680    5.6270 C.3    57  HIS57       0.0785
     55  CG       -18.1050   -2.5510    4.7330 C.ar   57  HIS57       0.0821
     56  ND1      -18.2030   -1.1740    4.8020 N.ar   57  HIS57      -0.2267
     57  CD2      -17.2080   -2.8170    3.7550 C.ar   57  HIS57       0.1154
     58  CE1      -17.3930   -0.6350    3.9070 C.ar   57  HIS57       0.1986
     59  NE2      -16.7810   -1.6080    3.2580 N.ar   57  HIS57      -0.2212
     60  N        -19.8410   -6.5880    5.9410 N.am   58  ILE58      -0.1977
     61  CA       -20.3300   -7.6130    6.8490 C.3    58  ILE58       0.1596
     62  C        -19.4820   -7.4950    8.1060 C.2    58  ILE58       0.2287
     63  O        -18.4060   -6.8850    8.0980 O.2    58  ILE58      -0.2864
     64  CB       -20.2270   -9.0280    6.2400 C.3    58  ILE58       0.0276
     65  CG1      -18.7790   -9.3640    5.8970 C.3    58  ILE58       0.0022
     66  CG2      -21.0630   -9.1120    4.9560 C.3    58  ILE58       0.0022
     67  CD1      -18.5820  -10.7940    5.3680 C.3    58  ILE58       0.0001
     68  N        -15.7080   -7.8410    8.3990 N.3    61  GLN61      -0.1245
     69  CA       -14.8880   -6.8220    7.7530 C.3    61  GLN61       0.1566
     70  C        -14.5730   -5.6340    8.6110 C.2    61  GLN61       0.2260
     71  O        -13.7060   -4.8300    8.2650 O.2    61  GLN61      -0.2867
     72  CB       -15.5590   -6.3210    6.4780 C.3    61  GLN61       0.0367
     73  CG       -15.4440   -7.2390    5.2920 C.3    61  GLN61       0.0905
     74  CD       -16.2390   -6.6910    4.1180 C.2    61  GLN61       0.2608
     75  OE1      -17.4530   -6.5810    4.2010 O.2    61  GLN61      -0.2717
     76  NE2      -15.5480   -6.2770    3.0630 N.am   61  GLN61      -0.0878
     77  N        -12.4580   -2.2610   -5.9910 N.3    88  TRP88      -0.1241
     78  CA       -13.8040   -2.3590   -6.5160 C.3    88  TRP88       0.1605
     79  C        -13.9120   -1.1390   -7.4280 C.2    88  TRP88       0.2264
     80  O        -13.5550   -0.0330   -7.0320 O.2    88  TRP88      -0.2867
     81  CB       -14.8300   -2.2890   -5.3920 C.3    88  TRP88       0.0550
     82  CG       -14.9750   -3.5740   -4.6240 C.ar   88  TRP88       0.0003
     83  CD1      -15.6310   -4.6910   -5.0360 C.ar   88  TRP88       0.0946
     84  CD2      -14.5340   -3.8270   -3.2790 C.ar   88  TRP88       0.0152
     85  NE1      -15.6450   -5.6250   -4.0250 N.ar   88  TRP88      -0.2442
     86  CE2      -14.9830   -5.1240   -2.9450 C.ar   88  TRP88       0.0810
     87  CE3      -13.8190   -3.0840   -2.3270 C.ar   88  TRP88       0.0012
     88  CZ2      -14.7340   -5.6990   -1.6800 C.ar   88  TRP88       0.0191
     89  CZ3      -13.5720   -3.6470   -1.0820 C.ar   88  TRP88       0.0001
     90  CH2      -14.0330   -4.9460   -0.7680 C.ar   88  TRP88       0.0015
     91  N        -16.7530    0.0200   -8.8500 N.3    90  ASN90      -0.1225
     92  CA       -18.1100    0.5610   -8.8540 C.3    90  ASN90       0.1785
     93  C        -18.2280    1.6100   -7.7540 C.2    90  ASN90       0.2597
     94  O        -19.3060    1.8560   -7.2400 O.2    90  ASN90      -0.2718
     95  CB       -19.1320   -0.5530   -8.6350 C.3    90  ASN90       0.1169
     96  CG       -18.9450   -1.2430   -7.2950 C.2    90  ASN90       0.2627
     97  OD1      -17.8890   -1.1230   -6.6780 O.2    90  ASN90      -0.2716
     98  ND2      -19.9610   -1.9560   -6.8460 N.am   90  ASN90      -0.0877
     99  N        -17.1000    2.1970   -7.3910 N.am   91  LYS91      -0.1980
    100  CA       -17.0270    3.2530   -6.3830 C.3    91  LYS91       0.1596
    101  C        -16.0030    4.2560   -6.8950 C.2    91  LYS91       0.2287
    102  O        -15.0570    3.8900   -7.5890 O.2    91  LYS91      -0.2864
    103  CB       -16.5730    2.6940   -5.0330 C.3    91  LYS91       0.0298
    104  CG       -17.6570    2.5730   -3.9660 C.3    91  LYS91       0.0038
    105  CD       -18.9030    1.9120   -4.4790 C.3    91  LYS91       0.0206
    106  CE       -19.9160    1.6770   -3.3990 C.3    91  LYS91       0.1093
    107  NZ       -19.5050    0.4930   -2.6130 N.3    91  LYS91      -0.1314
@<TRIPOS>BOND
     1    23    21    1
     2    22    21    1
     3    31    29   am
     4    21    20    2
     5    20    19    1
     6    25    24    1
     7    25    26    1
     8    25    28    1
     9    24    15   am
    10    18    19    1
    11    18    17    1
    12    29    28    1
    13    29    30    2
    14    26    27    2
    15    14    15    1
    16    14    17    1
    17    14    13    1
    18     4     3    2
    19    15    16    2
    20    92    91    1
    21    92    95    1
    22    92    93    1
    23    95    96    1
    24     3    13   am
    25     3     2    1
    26    93    99   am
    27    93    94    2
    28   102   101    2
    29    79    80    2
    30    79    78    1
    31    99   100    1
    32    96    98   am
    33    96    97    2
    34   101   100    1
    35     1     2    1
    36     2     5    1
    37    78    77    1
    38    78    81    1
    39   100   103    1
    40     5     6    1
    41    81    82    1
    42    83    82   ar
    43    83    85   ar
    44   103   104    1
    45    82    84   ar
    46   105   104    1
    47   105   106    1
    48     6     7   ar
    49     6     8   ar
    50     7     9   ar
    51    85    86   ar
    52   106   107    1
    53     8    10   ar
    54    84    86   ar
    55    84    87   ar
    56    86    88   ar
    57     9    11   ar
    58    87    89   ar
    59    10    11   ar
    60    11    12    1
    61    88    90   ar
    62    89    90   ar
    63    40    38   ar
    64    39    38   ar
    65    38    37    1
    66    37    36    1
    67    45    46    1
    68    45    42    1
    69    46    47    1
    70    36    33    1
    71    49    47   am
    72    47    48    2
    73    32    33    1
    74    33    34    1
    75    42    43    1
    76    42    41    1
    77    44    43    2
    78    43    50   am
    79    76    74   am
    80    59    57   ar
    81    59    58   ar
    82    34    35    2
    83    57    55   ar
    84    58    56   ar
    85    74    75    2
    86    74    73    1
    87    50    51    1
    88    55    56   ar
    89    55    54    1
    90    51    54    1
    91    51    52    1
    92    66    64    1
    93    73    72    1
    94    67    65    1
    95    52    60   am
    96    52    53    2
    97    65    64    1
    98    60    61    1
    99    64    61    1
   100    72    69    1
   101    61    62    1
   102    69    68    1
   103    69    70    1
   104    63    62    2
   105    71    70    2
