@<TRIPOS>MOLECULE
tmp/1eflB03.pdb
 119 109 0 0 0
SMALL
GASTEIGER

@<TRIPOS>ATOM
      1  N         55.3670   16.7190   57.0380 N.3    86  TYR86      -0.1227
      2  CA        56.3640   16.0190   57.8470 C.3    86  TYR86       0.1736
      3  C         56.0310   16.1750   59.3410 C.2    86  TYR86       0.2596
      4  O         54.8750   16.3730   59.7030 O.2    86  TYR86      -0.2718
      5  CB        57.7350   16.6200   57.5240 C.3    86  TYR86       0.0548
      6  CG        58.9320   15.8390   57.9820 C.ar   86  TYR86      -0.0200
      7  CD1       59.1440   14.5310   57.5580 C.ar   86  TYR86      -0.0009
      8  CD2       59.8800   16.4320   58.8120 C.ar   86  TYR86      -0.0009
      9  CE1       60.2840   13.8330   57.9520 C.ar   86  TYR86       0.0417
     10  CE2       61.0160   15.7470   59.2100 C.ar   86  TYR86       0.0417
     11  CZ        61.2180   14.4530   58.7810 C.ar   86  TYR86       0.1957
     12  OH        62.3630   13.7980   59.1650 O.3    86  TYR86      -0.2866
     13  N         57.0310   16.0900   60.2090 N.am   87  THR87      -0.1953
     14  CA        56.7650   16.2230   61.6400 C.3    87  THR87       0.1897
     15  C         56.3460   17.6540   61.9450 C.2    87  THR87       0.2313
     16  O         56.9080   18.5990   61.3990 O.2    87  THR87      -0.2863
     17  CB        58.0100   15.8470   62.4860 C.3    87  THR87       0.1794
     18  OG1       57.6650   15.8550   63.8760 O.3    87  THR87      -0.2208
     19  CG2       59.1430   16.8220   62.2310 C.3    87  THR87       0.0378
     20  N         58.6010    1.3260   65.5660 N.3   139  ARG139     -0.1245
     21  CA        58.9880    2.5090   66.3160 C.3   139  ARG139      0.1563
     22  C         58.6870    3.7210   65.4420 C.2   139  ARG139      0.2260
     23  O         59.6040    4.3860   64.9490 O.2   139  ARG139     -0.2867
     24  CB        60.4820    2.4730   66.6490 C.3   139  ARG139      0.0307
     25  CG        60.8640    3.1020   67.9950 C.3   139  ARG139      0.0489
     26  CD        61.7560    4.3380   67.8420 C.3   139  ARG139      0.2205
     27  NE        61.2870    5.2270   66.7840 N.pl3 139  ARG139     -0.0865
     28  CZ        62.0740    5.9970   66.0350 C.cat 139  ARG139      0.5346
     29  NH1       63.3860    6.0070   66.2190 N.pl3 139  ARG139      0.1354
     30  NH2       61.5440    6.7520   65.0820 N.pl3 139  ARG139      0.1354
     31  N         58.3170    7.1020   64.9710 N.3   141  LEU141     -0.1245
     32  CA        58.6760    8.3410   65.6800 C.3   141  LEU141      0.1561
     33  C         58.7790    8.0120   67.1690 C.2   141  LEU141      0.2260
     34  O         59.4280    7.0340   67.5440 O.2   141  LEU141     -0.2867
     35  CB        57.6210    9.4340   65.4470 C.3   141  LEU141      0.0270
     36  CG        57.4990   10.0420   64.0390 C.3   141  LEU141      0.0019
     37  CD1       56.5800   11.2630   64.0950 C.3   141  LEU141      0.0001
     38  CD2       58.8510   10.4440   63.5040 C.3   141  LEU141      0.0001
     39  N         55.2550    7.3450   57.2230 N.3   152  ILE152     -0.1245
     40  CA        56.6410    7.7440   57.4230 C.3   152  ILE152      0.1561
     41  C         57.5010    7.5590   56.1650 C.2   152  ILE152      0.2260
     42  O         58.1690    8.5000   55.7130 O.2   152  ILE152     -0.2867
     43  CB        57.2700    6.9850   58.6360 C.3   152  ILE152      0.0252
     44  CG1       56.5090    7.3440   59.9090 C.3   152  ILE152      0.0019
     45  CG2       58.7470    7.3760   58.8210 C.3   152  ILE152      0.0019
     46  CD1       56.6300    8.7950   60.2940 C.3   152  ILE152      0.0001
     47  N         59.1590   10.5450   53.9680 N.3   156  LYS156     -0.1245
     48  CA        60.6000   10.5890   53.8510 C.3   156  LYS156      0.1561
     49  C         61.0190   10.7870   52.4160 C.2   156  LYS156      0.2260
     50  O         61.9220   11.5730   52.1280 O.2   156  LYS156     -0.2867
     51  CB        61.2010    9.2800   54.3780 C.3   156  LYS156      0.0271
     52  CG        62.3140    9.4500   55.3830 C.3   156  LYS156      0.0035
     53  CD        61.7700    9.9460   56.7100 C.3   156  LYS156      0.0206
     54  CE        62.8920   10.4480   57.6060 C.3   156  LYS156      0.1093
     55  NZ        62.8720    9.7900   58.9360 N.3   156  LYS156     -0.1314
     56  N         63.9040    2.6640   58.0550 N.3   226  GLU226     -0.1231
     57  CA        63.3270    3.6960   58.8710 C.3   226  GLU226      0.1699
     58  C         62.3640    3.1920   59.9120 C.2   226  GLU226      0.2592
     59  O         61.5170    2.3560   59.6350 O.2   226  GLU226     -0.2718
     60  CB        62.5990    4.7140   57.9870 C.3   226  GLU226      0.0402
     61  CG        62.1810    5.9660   58.7490 C.3   226  GLU226      0.1161
     62  CD        63.3260    6.9320   58.9470 C.2   226  GLU226      0.3649
     63  OE1       63.3210    7.6840   59.9470 O.co2 226  GLU226     -0.2457
     64  OE2       64.2270    6.9370   58.0920 O.co2 226  GLU226     -0.2457
     65  N         62.4930    3.7270   61.1140 N.am  227  ASP227     -0.1974
     66  CA        61.6180    3.3910   62.2190 C.3   227  ASP227      0.1709
     67  C         61.3620    1.9170   62.5380 C.2   227  ASP227      0.2293
     68  O         60.2220    1.4900   62.7190 O.2   227  ASP227     -0.2864
     69  CB        60.3060    4.1510   62.0510 C.3   227  ASP227      0.1436
     70  CG        60.4660    5.6250   62.3700 C.2   227  ASP227      0.3671
     71  OD1       61.6100    6.0060   62.6750 O.co2 227  ASP227     -0.2456
     72  OD2       59.4810    6.3930   62.3240 O.co2 227  ASP227     -0.2456
     73  N         67.3280    6.5440   61.5150 N.3   250  ASP250     -0.1239
     74  CA        67.2320    6.8170   62.9350 C.3   250  ASP250      0.1674
     75  C         68.5550    6.6700   63.6860 C.2   250  ASP250      0.2266
     76  O         68.7290    7.2480   64.7540 O.2   250  ASP250     -0.2867
     77  CB        66.1680    5.9240   63.5710 C.3   250  ASP250      0.1410
     78  CG        64.9560    5.7120   62.6680 C.2   250  ASP250      0.3668
     79  OD1       64.1720    6.6640   62.4850 O.co2 250  ASP250     -0.2456
     80  OD2       64.7850    4.5880   62.1530 O.co2 250  ASP250     -0.2456
     81  N         70.3160   10.6750   62.1820 N.3   254  THR254     -0.1218
     82  CA        70.2660   11.4540   63.4130 C.3   254  THR254      0.1862
     83  C         71.6680   11.8040   63.8680 C.2   254  THR254      0.2287
     84  O         71.9330   12.9200   64.3080 O.2   254  THR254     -0.2866
     85  CB        69.6330   10.6570   64.5290 C.3   254  THR254      0.1770
     86  OG1       68.6540    9.7830   63.9690 O.3   254  THR254     -0.2211
     87  CG2       68.9840   11.5790   65.5370 C.3   254  THR254      0.0375
     88  N         65.5460   16.3860   70.9360 N.3   386  LEU386     -0.1245
     89  CA        65.3760   15.7900   69.6100 C.3   386  LEU386      0.1561
     90  C         64.1960   14.8210   69.4160 C.2   386  LEU386      0.2260
     91  O         63.9830   14.3210   68.3130 O.2   386  LEU386     -0.2867
     92  CB        66.6800   15.1100   69.1860 C.3   386  LEU386      0.0270
     93  CG        67.9090   16.0270   69.0850 C.3   386  LEU386      0.0019
     94  CD1       69.1350   15.2130   68.7070 C.3   386  LEU386      0.0001
     95  CD2       67.6740   17.1330   68.0550 C.3   386  LEU386      0.0001
     96  N         60.5860   13.3100   68.6610 N.3   388  ASN388     -0.1240
     97  CA        59.4590   13.6360   67.7910 C.3   388  ASN388      0.1653
     98  C         58.2830   12.7340   68.1450 C.2   388  ASN388      0.2266
     99  O         58.4730   11.6260   68.6430 O.2   388  ASN388     -0.2867
    100  CB        59.8120   13.3680   66.3150 C.3   388  ASN388      0.1155
    101  CG        60.8570   14.3180   65.7700 C.2   388  ASN388      0.2627
    102  OD1       60.9210   15.4720   66.1740 O.2   388  ASN388     -0.2716
    103  ND2       61.6760   13.8370   64.8420 N.am  388  ASN388     -0.0877
    104  N         66.9730   17.7660   62.8780 N.3   433  ASN433     -0.1225
    105  CA        66.2100   16.7210   62.2230 C.3   433  ASN433      0.1785
    106  C         67.0400   16.1500   61.0850 C.2   433  ASN433      0.2597
    107  O         67.6340   16.8960   60.3080 O.2   433  ASN433     -0.2718
    108  CB        64.9090   17.2900   61.6990 C.3   433  ASN433      0.1169
    109  CG        63.7990   16.2850   61.7300 C.2   433  ASN433      0.2627
    110  OD1       63.6660   15.4800   60.8130 O.2   433  ASN433     -0.2716
    111  ND2       62.9930   16.3130   62.7820 N.am  433  ASN433     -0.0877
    112  N         67.0910   14.8200   61.0090 N.am  434  ASN434     -0.1974
    113  CA        67.8690   14.1360   59.9780 C.3   434  ASN434      0.1688
    114  C         67.4750   14.5210   58.5460 C.2   434  ASN434      0.2292
    115  O         68.1710   14.1510   57.5850 O.2   434  ASN434     -0.2864
    116  CB        67.8100   12.6090   60.1750 C.3   434  ASN434      0.1181
    117  CG        66.3920   12.0700   60.2560 C.2   434  ASN434      0.2629
    118  OD1       65.5410   12.3750   59.4180 O.2   434  ASN434     -0.2716
    119  ND2       66.1370   11.2460   61.2620 N.am  434  ASN434     -0.0877
@<TRIPOS>BOND
     1    50    49    2
     2    49    48    1
     3    48    47    1
     4    48    51    1
     5    51    52    1
     6    52    53    1
     7    42    41    2
     8    41    40    1
     9    53    54    1
    10     1     2    1
    11    39    40    1
    12    40    43    1
    13     5     2    1
    14     5     6    1
    15     7     9   ar
    16     7     6   ar
    17   115   114    2
    18    54    55    1
    19     2     3    1
    20     9    11   ar
    21     6     8   ar
    22    60    61    1
    23    60    57    1
    24    56    57    1
    25    64    62   ar
    26   114   113    1
    27    43    45    1
    28    43    44    1
    29    61    62    1
    30    11    12    1
    31    11    10   ar
    32     8    10   ar
    33    57    58    1
    34    62    63   ar
    35     3     4    2
    36     3    13   am
    37   118   117    2
    38    59    58    2
    39    44    46    1
    40    58    65   am
    41   113   116    1
    42   113   112    1
    43   116   117    1
    44    13    14    1
    45   117   119   am
    46   107   106    2
    47   110   109    2
    48   112   106   am
    49   106   105    1
    50    65    66    1
    51    16    15    2
    52    73    74    1
    53    14    15    1
    54    14    17    1
    55   108   109    1
    56   108   105    1
    57   109   111   am
    58    69    66    1
    59    69    70    1
    60    80    78   ar
    61    81    82    1
    62    66    67    1
    63   105   104    1
    64    19    17    1
    65    72    70   ar
    66    70    71   ar
    67    79    78   ar
    68    17    18    1
    69    67    68    2
    70    78    77    1
    71    74    77    1
    72    74    75    1
    73    82    83    1
    74    82    85    1
    75    38    36    1
    76    75    76    2
    77    83    84    2
    78    86    85    1
    79    36    37    1
    80    36    35    1
    81    85    87    1
    82   103   101   am
    83    23    22    2
    84    31    32    1
    85    30    28    1
    86    22    21    1
    87    35    32    1
    88    20    21    1
    89    32    33    1
    90   101   102    2
    91   101   100    1
    92    28    29    1
    93    28    27    2
    94   100    97    1
    95    21    24    1
    96    24    25    1
    97    27    26    1
    98    33    34    2
    99    97    98    1
   100    97    96    1
   101    26    25    1
   102    95    93    1
   103    98    99    2
   104    91    90    2
   105    94    93    1
   106    93    92    1
   107    92    89    1
   108    90    89    1
   109    89    88    1
