@<TRIPOS>MOLECULE
tmp/1efpD01.pdb
 170 161 0 0 0
SMALL
GASTEIGER

@<TRIPOS>ATOM
      1  N         57.1410    0.2990  109.6010 N.3     6  PRO6       -0.2102
      2  CA        57.1300    1.7190  109.2430 C.3     6  PRO6        0.1504
      3  C         55.6960    2.1660  109.0470 C.2     6  PRO6        0.2576
      4  O         54.9640    1.5630  108.2650 O.2     6  PRO6       -0.2718
      5  CB        57.8730    1.7480  107.9030 C.3     6  PRO6        0.0282
      6  CG        58.6340    0.4730  107.8720 C.3     6  PRO6        0.0208
      7  CD        57.6880   -0.5010  108.4990 C.3     6  PRO6        0.0893
      8  N         55.2800    3.1920  109.7760 N.am    7  VAL7       -0.1966
      9  CA        53.9310    3.6980  109.6500 C.3     7  VAL7        0.1727
     10  C         54.0400    5.1760  109.3620 C.2     7  VAL7        0.2616
     11  O         54.9310    5.8440  109.8730 O.2     7  VAL7       -0.2715
     12  CB        53.0810    3.4240  110.9080 C.3     7  VAL7        0.0290
     13  CG1       52.9730    1.9320  111.1400 C.3     7  VAL7        0.0023
     14  CG2       53.6660    4.1200  112.1250 C.3     7  VAL7        0.0023
     15  N         53.1060    5.6870  108.5670 N.am    8  LYS8       -0.1977
     16  CA        53.1220    7.0790  108.1610 C.3     8  LYS8        0.1596
     17  C         51.8620    7.8240  108.5520 C.2     8  LYS8        0.2287
     18  O         50.7770    7.2420  108.6000 O.2     8  LYS8       -0.2864
     19  CB        53.3050    7.1630  106.6390 C.3     8  LYS8        0.0298
     20  CG        53.6330    8.5670  106.1270 C.3     8  LYS8        0.0038
     21  CD        53.7830    8.6320  104.6080 C.3     8  LYS8        0.0206
     22  CE        54.2950   10.0060  104.1940 C.3     8  LYS8        0.1093
     23  NZ        54.2330   10.2510  102.7350 N.3     8  LYS8       -0.1314
     24  N         48.3220    5.8640  107.6190 N.3    36  ASN36      -0.1240
     25  CA        48.1630    5.3400  106.2620 C.3    36  ASN36       0.1653
     26  C         47.4760    3.9890  106.3490 C.2    36  ASN36       0.2266
     27  O         47.9610    3.0720  107.0160 O.2    36  ASN36      -0.2867
     28  CB        49.5250    5.2000  105.5740 C.3    36  ASN36       0.1155
     29  CG        49.4170    4.6880  104.1450 C.2    36  ASN36       0.2627
     30  OD1       48.7290    5.2740  103.3170 O.2    36  ASN36      -0.2716
     31  ND2       50.1090    3.5950  103.8500 N.am   36  ASN36      -0.0877
     32  N         49.4740    0.9370  106.3180 N.3    39  ASP39      -0.1239
     33  CA        50.3330    0.7650  107.4760 C.3    39  ASP39       0.1674
     34  C         49.6140    0.0550  108.6040 C.2    39  ASP39       0.2266
     35  O         50.2200   -0.7400  109.3290 O.2    39  ASP39      -0.2867
     36  CB        50.8890    2.1090  107.9170 C.3    39  ASP39       0.1410
     37  CG        51.7580    2.7330  106.8570 C.2    39  ASP39       0.3668
     38  OD1       52.3030    1.9870  106.0180 O.co2  39  ASP39      -0.2456
     39  OD2       51.8970    3.9670  106.8500 O.co2  39  ASP39      -0.2456
     40  N         58.1040    2.4580  113.6720 N.3    61  VAL61      -0.1231
     41  CA        58.8560    3.6750  113.3920 C.3    61  VAL61       0.1692
     42  C         58.0910    4.5790  112.4340 C.2    61  VAL61       0.2593
     43  O         57.3030    4.1070  111.6180 O.2    61  VAL61      -0.2718
     44  CB        60.2550    3.3440  112.8090 C.3    61  VAL61       0.0266
     45  CG1       60.1270    2.3970  111.6460 C.3    61  VAL61       0.0020
     46  CG2       60.9820    4.6150  112.3800 C.3    61  VAL61       0.0020
     47  N         58.2710    5.8810  112.5890 N.am   62  SER62      -0.1938
     48  CA        57.6180    6.8470  111.7320 C.3    62  SER62       0.2055
     49  C         58.5760    8.0110  111.6180 C.2    62  SER62       0.2642
     50  O         59.2750    8.3450  112.5770 O.2    62  SER62      -0.2714
     51  CB        56.2890    7.3060  112.3190 C.3    62  SER62       0.2130
     52  OG        55.5730    8.0930  111.3760 O.3    62  SER62      -0.2179
     53  N         58.6220    8.6000  110.4290 N.am   63  ILE63      -0.1977
     54  CA        59.5100    9.7120  110.1260 C.3    63  ILE63       0.1596
     55  C         58.6830   10.9060  109.6670 C.2    63  ILE63       0.2287
     56  O         57.7210   10.7550  108.9090 O.2    63  ILE63      -0.2864
     57  CB        60.4640    9.3340  108.9750 C.3    63  ILE63       0.0276
     58  CG1       61.2100    8.0370  109.2990 C.3    63  ILE63       0.0022
     59  CG2       61.4240   10.4730  108.6940 C.3    63  ILE63       0.0022
     60  CD1       62.0520    7.5420  108.1630 C.3    63  ILE63       0.0001
     61  N         56.9920   16.6580  102.6990 N.3    95  ASP95      -0.1225
     62  CA        56.9850   15.2000  102.7670 C.3    95  ASP95       0.1805
     63  C         58.3690   14.7240  102.3530 C.2    95  ASP95       0.2597
     64  O         58.9060   15.2080  101.3590 O.2    95  ASP95      -0.2718
     65  CB        55.9300   14.6060  101.8320 C.3    95  ASP95       0.1424
     66  CG        55.8650   13.0900  101.9160 C.2    95  ASP95       0.3668
     67  OD1       55.8960   12.5530  103.0440 O.co2  95  ASP95      -0.2456
     68  OD2       55.7900   12.4330  100.8550 O.co2  95  ASP95      -0.2456
     69  N         58.9790   13.8300  103.1280 N.am   96  ILE96      -0.1980
     70  CA        60.3080   13.3470  102.7530 C.3    96  ILE96       0.1595
     71  C         60.2550   12.1160  101.8340 C.2    96  ILE96       0.2287
     72  O         59.5020   11.1620  102.0650 O.2    96  ILE96      -0.2864
     73  CB        61.2560   13.1230  103.9620 C.3    96  ILE96       0.0276
     74  CG1       60.8500   11.8920  104.7530 C.3    96  ILE96       0.0022
     75  CG2       61.2650   14.3570  104.8650 C.3    96  ILE96       0.0022
     76  CD1       61.9920   11.3130  105.5210 C.3    96  ILE96       0.0001
     77  N         60.8910    8.7170   99.6010 N.3    98  PRO98      -0.2116
     78  CA        61.0890    7.3040   99.9150 C.3    98  PRO98       0.1372
     79  C         62.5710    6.9350   99.9900 C.2    98  PRO98       0.2244
     80  O         62.9450    6.0040  100.6960 O.2    98  PRO98      -0.2868
     81  CB        60.4240    6.6070   98.7320 C.3    98  PRO98       0.0268
     82  CG        59.2910    7.5040   98.4370 C.3    98  PRO98       0.0207
     83  CD        59.9190    8.8700   98.5040 C.3    98  PRO98       0.0892
     84  N         63.6840    8.1220  103.4460 N.3   101  VAL101     -0.1245
     85  CA        63.0030    7.2120  104.3680 C.3   101  VAL101      0.1561
     86  C         63.6770    5.8360  104.4130 C.2   101  VAL101      0.2260
     87  O         63.8860    5.2720  105.4880 O.2   101  VAL101     -0.2867
     88  CB        61.5250    7.0030  103.9500 C.3   101  VAL101      0.0252
     89  CG1       60.8670    5.9330  104.8060 C.3   101  VAL101      0.0019
     90  CG2       60.7610    8.3060  104.0460 C.3   101  VAL101      0.0019
     91  N         65.2460    4.0040  107.5750 N.3   105  LEU105     -0.1245
     92  CA        64.7050    2.7210  108.0150 C.3   105  LEU105      0.1561
     93  C         65.8030    1.6750  107.9810 C.2   105  LEU105      0.2260
     94  O         65.8160    0.7590  108.7940 O.2   105  LEU105     -0.2867
     95  CB        63.5570    2.2750  107.1110 C.3   105  LEU105      0.0270
     96  CG        62.1160    2.5830  107.5060 C.3   105  LEU105      0.0019
     97  CD1       61.9680    3.9880  108.0450 C.3   105  LEU105      0.0001
     98  CD2       61.2470    2.3920  106.2910 C.3   105  LEU105      0.0001
     99  N         56.2510   -3.1100  105.5990 N.3   119  ALA119     -0.1231
    100  CA        55.7950   -1.7700  105.2440 C.3   119  ALA119      0.1694
    101  C         54.5060   -1.9000  104.4510 C.2   119  ALA119      0.2593
    102  O         54.1310   -3.0040  104.0540 O.2   119  ALA119     -0.2718
    103  CB        56.8530   -1.0620  104.4150 C.3   119  ALA119      0.0304
    104  N         53.8250   -0.7830  104.2280 N.am  120  GLY120     -0.1942
    105  CA        52.5880   -0.8210  103.4650 C.3   120  GLY120      0.2014
    106  C         52.9060   -0.8820  101.9840 C.2   120  GLY120      0.2639
    107  O         54.0760   -0.7770  101.6050 O.2   120  GLY120     -0.2714
    108  N         51.8990   -1.1120  101.1460 N.am  121  LYS121     -0.1963
    109  CA        52.1370   -1.1610   99.7050 C.3   121  LYS121      0.1728
    110  C         52.5490    0.2130   99.2260 C.2   121  LYS121      0.2616
    111  O         53.5280    0.3370   98.4980 O.2   121  LYS121     -0.2715
    112  CB        50.8960   -1.6120   98.9380 C.3   121  LYS121      0.0311
    113  CG        51.1700   -1.9170   97.4850 C.3   121  LYS121      0.0038
    114  CD        49.9730   -2.5270   96.7780 C.3   121  LYS121      0.0206
    115  CE        48.9930   -1.4690   96.3310 C.3   121  LYS121      0.1093
    116  NZ        47.9630   -2.0320   95.4060 N.3   121  LYS121     -0.1314
    117  N         51.8060    1.2430   99.6390 N.am  122  GLN122     -0.1963
    118  CA        52.1060    2.6250   99.2560 C.3   122  GLN122      0.1733
    119  C         51.4560    3.6310  100.2010 C.2   122  GLN122      0.2616
    120  O         50.4800    3.3180  100.8930 O.2   122  GLN122     -0.2715
    121  CB        51.6430    2.9160   97.8270 C.3   122  GLN122      0.0408
    122  CG        50.1410    2.8940   97.6670 C.3   122  GLN122      0.0908
    123  CD        49.7120    3.0390   96.2390 C.2   122  GLN122      0.2608
    124  OE1       49.4950    4.1490   95.7540 O.2   122  GLN122     -0.2717
    125  NE2       49.5740    1.9170   95.5500 N.am  122  GLN122     -0.0878
    126  N         51.9920    4.8460  100.1940 N.am  123  ALA123     -0.1977
    127  CA        51.4960    5.9190  101.0290 C.3   123  ALA123      0.1597
    128  C         50.4600    6.6390  100.2070 C.2   123  ALA123      0.2287
    129  O         50.7920    7.2360   99.1900 O.2   123  ALA123     -0.2864
    130  CB        52.6170    6.8490  101.3850 C.3   123  ALA123      0.0319
    131  N         51.6830   10.3340   98.5420 N.3   126  ASN126     -0.1240
    132  CA        52.5850   10.4730   97.4110 C.3   126  ASN126      0.1653
    133  C         52.4090    9.3490   96.3870 C.2   126  ASN126      0.2266
    134  O         52.9540    9.4180   95.2860 O.2   126  ASN126     -0.2867
    135  CB        54.0520   10.6370   97.8590 C.3   126  ASN126      0.1155
    136  CG        54.5950    9.4280   98.6070 C.2   126  ASN126      0.2627
    137  OD1       54.1140    8.3070   98.4410 O.2   126  ASN126     -0.2716
    138  ND2       55.6110    9.6510   99.4290 N.am  126  ASN126     -0.0877
    139  N         53.7550    6.7920   95.8390 N.3   128  MET128     -0.1230
    140  CA        55.0230    6.3360   95.2960 C.3   128  MET128      0.1702
    141  C         55.2070    4.8130   95.1380 C.2   128  MET128      0.2592
    142  O         55.8280    4.3770   94.1740 O.2   128  MET128     -0.2718
    143  CB        56.1630    6.9260   96.1290 C.3   128  MET128      0.0401
    144  CG        57.4530    7.1450   95.3770 C.3   128  MET128      0.0596
    145  SD        57.3930    8.5510   94.2690 S.3   128  MET128     -0.1393
    146  CE        57.6460    9.8780   95.3860 C.3   128  MET128      0.0692
    147  N         54.6870    4.0120   96.0710 N.am  129  ASN129     -0.1960
    148  CA        54.8410    2.5480   96.0290 C.3   129  ASN129      0.1819
    149  C         56.3090    2.2200   95.7480 C.2   129  ASN129      0.2621
    150  O         56.6140    1.4870   94.8110 O.2   129  ASN129     -0.2715
    151  CB        53.9450    1.9450   94.9390 C.3   129  ASN129      0.1195
    152  CG        53.8190    0.4090   95.0260 C.2   129  ASN129      0.2630
    153  OD1       52.8140   -0.1560   94.5930 O.2   129  ASN129     -0.2716
    154  ND2       54.8300   -0.2610   95.5550 N.am  129  ASN129     -0.0877
    155  N         57.2190    2.7250   96.5810 N.am  130  ALA130     -0.1963
    156  CA        58.6380    2.4870   96.3510 C.3   130  ALA130      0.1728
    157  C         59.5310    2.2180   97.5620 C.2   130  ALA130      0.2617
    158  O         60.5560    1.5390   97.4380 O.2   130  ALA130     -0.2715
    159  CB        59.1990    3.6460   95.5660 C.3   130  ALA130      0.0334
    160  N         59.1550    2.7520   98.7220 N.am  131  THR131     -0.1937
    161  CA        59.9410    2.6120   99.9480 C.3   131  THR131      0.2028
    162  C         60.3630    1.2180  100.3860 C.2   131  THR131      0.2642
    163  O         61.5300    1.0170  100.7030 O.2   131  THR131     -0.2714
    164  CB        59.2840    3.3640  101.1050 C.3   131  THR131      0.1808
    165  OG1       59.3900    4.7700  100.8520 O.3   131  THR131     -0.2208
    166  CG2       59.9510    3.0410  102.4220 C.3   131  THR131      0.0379
    167  N         59.4340    0.2650  100.4260 N.am  132  GLY132     -0.1954
    168  CA        59.7880   -1.0870  100.8240 C.3   132  GLY132      0.1869
    169  C         60.8980   -1.6560   99.9520 C.2   132  GLY132      0.2309
    170  O         61.9100   -2.1540  100.4620 O.2   132  GLY132     -0.2863
@<TRIPOS>BOND
     1   142   141    2
     2   145   144    1
     3   145   146    1
     4   153   152    2
     5   150   149    2
     6   151   152    1
     7   151   148    1
     8   152   154   am
     9   141   140    1
    10   141   147   am
    11   134   133    2
    12   140   139    1
    13   140   143    1
    14   144   143    1
    15   116   115    1
    16   125   123   am
    17   159   156    1
    18   149   148    1
    19   149   155   am
    20   124   123    2
    21   148   147    1
    22   123   122    1
    23   115   114    1
    24   156   155    1
    25   156   157    1
    26   133   132    1
    27   114   113    1
    28   132   135    1
    29   132   131    1
    30   158   157    2
    31   113   112    1
    32   157   160   am
    33   122   121    1
    34   121   118    1
    35   135   136    1
    36    82    83    1
    37    82    81    1
    38   137   136    2
    39   111   110    2
    40    83    77    1
    41   136   138   am
    42   160   161    1
    43    81    78    1
    44   112   109    1
    45   129   128    2
    46   110   117   am
    47   110   109    1
    48   118   117    1
    49   118   119    1
    50    77    78    1
    51   109   108    1
    52    78    79    1
    53   161   162    1
    54   161   164    1
    55   169   170    2
    56   169   168    1
    57    79    80    2
    58   126   119   am
    59   126   127    1
    60   119   120    2
    61   128   127    1
    62   162   167   am
    63   162   163    2
    64   167   168    1
    65   165   164    1
    66    68    66   ar
    67   127   130    1
    68   164   166    1
    69   108   106   am
    70    64    63    2
    71   107   106    2
    72    65    66    1
    73    65    62    1
    74    71    72    2
    75    71    70    1
    76    66    67   ar
    77   106   105    1
    78    63    62    1
    79    63    69   am
    80    61    62    1
    81    23    22    1
    82    70    69    1
    83    70    73    1
    84    30    29    2
    85    84    85    1
    86   105   104    1
    87    31    29   am
    88    88    90    1
    89    88    85    1
    90    88    89    1
    91    73    74    1
    92    73    75    1
    93   102   101    2
    94    29    28    1
    95    22    21    1
    96   104   101   am
    97    85    86    1
    98    86    87    2
    99   103   100    1
   100   101   100    1
   101    21    20    1
   102    74    76    1
   103   100    99    1
   104    28    25    1
   105    38    37   ar
   106    20    19    1
   107    25    26    1
   108    25    24    1
   109    98    96    1
   110    32    33    1
   111    26    27    2
   112    19    16    1
   113    39    37   ar
   114    37    36    1
   115    95    96    1
   116    95    92    1
   117    33    36    1
   118    33    34    1
   119    96    97    1
   120    91    92    1
   121     6     5    1
   122     6     7    1
   123     5     2    1
   124    93    92    1
   125    93    94    2
   126    16    17    1
   127    16    15    1
   128    60    58    1
   129     4     3    2
   130     7     1    1
   131    17    18    2
   132    15    10   am
   133    34    35    2
   134    59    57    1
   135    56    55    2
   136    57    58    1
   137    57    54    1
   138     3     2    1
   139     3     8   am
   140     2     1    1
   141    10     9    1
   142    10    11    2
   143     9     8    1
   144     9    12    1
   145    55    54    1
   146    54    53    1
   147    53    49   am
   148    12    13    1
   149    12    14    1
   150    52    51    1
   151    43    42    2
   152    49    48    1
   153    49    50    2
   154    45    44    1
   155    48    51    1
   156    48    47    1
   157    46    44    1
   158    42    47   am
   159    42    41    1
   160    44    41    1
   161    41    40    1
