@<TRIPOS>MOLECULE
tmp/1efpA00.pdb
 196 190 0 0 0
SMALL
GASTEIGER

@<TRIPOS>ATOM
      1  N         40.5630   -0.0860   41.7580 N.3   199  GLY199     -0.1210
      2  CA        40.2290    0.3230   40.4080 C.3   199  GLY199      0.1956
      3  C         41.1260   -0.3440   39.3960 C.2   199  GLY199      0.2612
      4  O         41.5320   -1.4880   39.5860 O.2   199  GLY199     -0.2717
      5  N         41.4390    0.3730   38.3220 N.am  200  ARG200     -0.1965
      6  CA        42.2960   -0.1490   37.2540 C.3   200  ARG200      0.1729
      7  C         43.7980   -0.0880   37.5500 C.2   200  ARG200      0.2616
      8  O         44.5620   -0.9120   37.0520 O.2   200  ARG200     -0.2715
      9  CB        41.9850    0.5710   35.9360 C.3   200  ARG200      0.0348
     10  CG        42.9790    0.3100   34.8150 C.3   200  ARG200      0.0492
     11  CD        42.2940    0.1960   33.4660 C.3   200  ARG200      0.2205
     12  NE        41.4770    1.3590   33.1420 N.pl3 200  ARG200     -0.0865
     13  CZ        40.4900    1.3470   32.2510 C.cat 200  ARG200      0.5346
     14  NH1       40.2030    0.2330   31.5840 N.pl3 200  ARG200      0.1354
     15  NH2       39.7910    2.4500   32.0220 N.pl3 200  ARG200      0.1354
     16  N         44.2050    0.8710   38.3780 N.am  201  GLY201     -0.1955
     17  CA        45.6050    1.0250   38.7270 C.3   201  GLY201      0.1869
     18  C         46.2680   -0.2360   39.2340 C.2   201  GLY201      0.2309
     19  O         47.4900   -0.3390   39.2250 O.2   201  GLY201     -0.2863
     20  N         35.6520   -0.8360   40.8690 N.3   225  SER225     -0.1202
     21  CA        35.1690    0.0590   39.8320 C.3   225  SER225      0.2020
     22  C         34.8680   -0.7940   38.6130 C.2   225  SER225      0.2619
     23  O         35.3390   -1.9290   38.5200 O.2   225  SER225     -0.2717
     24  CB        36.2620    1.0440   39.4560 C.3   225  SER225      0.2103
     25  OG        37.3730    0.3450   38.9180 O.3   225  SER225     -0.2182
     26  N         34.1820   -0.2140   37.6350 N.am  226  ARG226     -0.1965
     27  CA        33.8470   -0.9460   36.4270 C.3   226  ARG226      0.1729
     28  C         35.1130   -1.5280   35.8170 C.2   226  ARG226      0.2616
     29  O         35.1970   -2.7260   35.5650 O.2   226  ARG226     -0.2715
     30  CB        33.1730   -0.0290   35.4180 C.3   226  ARG226      0.0348
     31  CG        32.6040   -0.7850   34.2470 C.3   226  ARG226      0.0492
     32  CD        32.1270    0.1340   33.1500 C.3   226  ARG226      0.2205
     33  NE        31.5100   -0.6380   32.0790 N.pl3 226  ARG226     -0.0865
     34  CZ        30.9970   -0.1070   30.9770 C.cat 226  ARG226      0.5346
     35  NH1       31.0360    1.2070   30.7940 N.pl3 226  ARG226      0.1354
     36  NH2       30.3970   -0.8860   30.0830 N.pl3 226  ARG226      0.1354
     37  N         36.1210   -0.6850   35.6510 N.am  227  ALA227     -0.1977
     38  CA        37.3820   -1.1070   35.0700 C.3   227  ALA227      0.1597
     39  C         37.8680   -2.4080   35.6790 C.2   227  ALA227      0.2287
     40  O         38.0930   -3.3810   34.9720 O.2   227  ALA227     -0.2864
     41  CB        38.4140   -0.0300   35.2540 C.3   227  ALA227      0.0319
     42  N         30.9670   -4.1250   42.5770 N.3   239  GLN239     -0.1231
     43  CA        31.0230   -2.8200   41.9520 C.3   239  GLN239      0.1698
     44  C         30.2620   -1.7630   42.7340 C.2   239  GLN239      0.2592
     45  O         29.0870   -1.9420   43.0790 O.2   239  GLN239     -0.2718
     46  CB        30.5380   -2.8710   40.4980 C.3   239  GLN239      0.0381
     47  CG        30.6460   -1.5200   39.7770 C.3   239  GLN239      0.0905
     48  CD        30.3920   -1.5810   38.2710 C.2   239  GLN239      0.2608
     49  OE1       29.7600   -2.5060   37.7550 O.2   239  GLN239     -0.2717
     50  NE2       30.8840   -0.5780   37.5620 N.am  239  GLN239     -0.0878
     51  N         30.9640   -0.6730   43.0300 N.am  240  VAL240     -0.1966
     52  CA        30.4100    0.4670   43.7460 C.3   240  VAL240      0.1727
     53  C         30.1280    1.5290   42.6950 C.2   240  VAL240      0.2617
     54  O         30.9720    1.7860   41.8330 O.2   240  VAL240     -0.2715
     55  CB        31.4360    1.0320   44.7630 C.3   240  VAL240      0.0290
     56  CG1       31.0120    2.4020   45.2500 C.3   240  VAL240      0.0023
     57  CG2       31.5850    0.0830   45.9340 C.3   240  VAL240      0.0023
     58  N         28.9340    2.1130   42.7440 N.am  241  GLY241     -0.1940
     59  CA        28.5770    3.1540   41.7900 C.3   241  GLY241      0.2014
     60  C         27.1210    3.1640   41.3570 C.2   241  GLY241      0.2639
     61  O         26.3030    2.3840   41.8480 O.2   241  GLY241     -0.2714
     62  N         26.8110    4.0470   40.4180 N.am  242  GLN242     -0.1963
     63  CA        25.4640    4.2020   39.8800 C.3   242  GLN242      0.1733
     64  C         24.8580    2.9140   39.2730 C.2   242  GLN242      0.2617
     65  O         23.6370    2.7670   39.2360 O.2   242  GLN242     -0.2715
     66  CB        25.4850    5.3500   38.8640 C.3   242  GLN242      0.0408
     67  CG        24.1850    5.7000   38.1860 C.3   242  GLN242      0.0908
     68  CD        24.3860    6.7460   37.1050 C.2   242  GLN242      0.2608
     69  OE1       25.4410    6.8040   36.4710 O.2   242  GLN242     -0.2717
     70  NE2       23.3910    7.5990   36.9130 N.am  242  GLN242     -0.0878
     71  N         25.6960    2.0040   38.7790 N.am  243  THR243     -0.1937
     72  CA        25.2250    0.7390   38.2020 C.3   243  THR243      0.2028
     73  C         25.2110   -0.3620   39.2540 C.2   243  THR243      0.2642
     74  O         24.3780   -1.2700   39.2030 O.2   243  THR243     -0.2714
     75  CB        26.1530    0.2600   37.0620 C.3   243  THR243      0.1808
     76  OG1       26.3800    1.3350   36.1490 O.3   243  THR243     -0.2208
     77  CG2       25.5310   -0.9110   36.3110 C.3   243  THR243      0.0379
     78  N         26.1380   -0.2730   40.2040 N.am  244  GLY244     -0.1954
     79  CA        26.2430   -1.2840   41.2380 C.3   244  GLY244      0.1869
     80  C         25.6150   -0.9110   42.5640 C.2   244  GLY244      0.2309
     81  O         24.4620   -0.4690   42.6300 O.2   244  GLY244     -0.2863
     82  N         43.7050    3.5890   43.4080 N.3   256  GLY256     -0.1210
     83  CA        43.7410    3.2910   41.9860 C.3   256  GLY256      0.1956
     84  C         42.4320    3.5540   41.2660 C.2   256  GLY256      0.2612
     85  O         42.1060    2.8740   40.2910 O.2   256  GLY256     -0.2717
     86  N         41.6760    4.5370   41.7420 N.am  257  ILE257     -0.1965
     87  CA        40.4040    4.9040   41.1340 C.3   257  ILE257      0.1727
     88  C         40.4790    6.3920   40.8370 C.2   257  ILE257      0.2617
     89  O         40.7610    7.1900   41.7340 O.2   257  ILE257     -0.2715
     90  CB        39.2330    4.6120   42.0860 C.3   257  ILE257      0.0290
     91  CG1       39.1570    3.1090   42.3400 C.3   257  ILE257      0.0022
     92  CG2       37.9310    5.1460   41.5180 C.3   257  ILE257      0.0023
     93  CD1       37.9700    2.6690   43.1470 C.3   257  ILE257      0.0001
     94  N         40.2510    6.7560   39.5800 N.am  258  SER258     -0.1936
     95  CA        40.3170    8.1490   39.1440 C.3   258  SER258      0.2055
     96  C         39.2190    9.0160   39.7350 C.2   258  SER258      0.2644
     97  O         39.4110   10.2150   39.9030 O.2   258  SER258     -0.2714
     98  CB        40.2480    8.2170   37.6260 C.3   258  SER258      0.2130
     99  OG        39.0370    7.6290   37.1800 O.3   258  SER258     -0.2179
    100  N         38.0530    8.4230   39.9730 N.am  259  GLY259     -0.1939
    101  CA        36.9480    9.1610   40.5570 C.3   259  GLY259      0.2014
    102  C         35.9640    9.6380   39.5230 C.2   259  GLY259      0.2638
    103  O         35.6270   10.8180   39.4730 O.2   259  GLY259     -0.2714
    104  N         35.5280    8.7190   38.6720 N.am  260  ALA260     -0.1977
    105  CA        34.5730    9.0310   37.6210 C.3   260  ALA260      0.1597
    106  C         33.2250    9.2640   38.2710 C.2   260  ALA260      0.2287
    107  O         32.9000    8.6190   39.2720 O.2   260  ALA260     -0.2864
    108  CB        34.4830    7.8850   36.6530 C.3   260  ALA260      0.0319
    109  N         30.2690    8.3080   37.6540 N.3   262  GLN262     -0.1231
    110  CA        29.5170    7.0910   37.8840 C.3   262  GLN262      0.1698
    111  C         29.9740    6.3040   39.1120 C.2   262  GLN262      0.2592
    112  O         29.1670    5.6230   39.7460 O.2   262  GLN262     -0.2718
    113  CB        29.5300    6.2300   36.6330 C.3   262  GLN262      0.0381
    114  CG        28.7890    6.8500   35.4640 C.3   262  GLN262      0.0905
    115  CD        29.5310    8.0110   34.8350 C.2   262  GLN262      0.2608
    116  OE1       30.7590    8.0690   34.8710 O.2   262  GLN262     -0.2717
    117  NE2       28.7880    8.9410   34.2480 N.am  262  GLN262     -0.0878
    118  N         31.2490    6.4020   39.4700 N.am  263  HIS263     -0.1976
    119  CA        31.7240    5.6930   40.6510 C.3   263  HIS263      0.1656
    120  C         31.3860    6.4830   41.9060 C.2   263  HIS263      0.2291
    121  O         30.9600    5.9120   42.9060 O.2   263  HIS263     -0.2864
    122  CB        33.2260    5.4510   40.5950 C.3   263  HIS263      0.0771
    123  CG        33.7430    4.6530   41.7490 C.ar  263  HIS263      0.0820
    124  ND1       33.7080    3.2750   41.7770 N.ar  263  HIS263     -0.2267
    125  CD2       34.2820    5.0360   42.9310 C.ar  263  HIS263      0.1154
    126  CE1       34.2000    2.8430   42.9230 C.ar  263  HIS263      0.1986
    127  NE2       34.5560    3.8930   43.6440 N.ar  263  HIS263     -0.2212
    128  N         44.2920    7.2410   47.2280 N.3   276  ILE276     -0.1231
    129  CA        45.7030    7.0660   46.9670 C.3   276  ILE276      0.1692
    130  C         45.7720    6.7480   45.4940 C.2   276  ILE276      0.2592
    131  O         45.3380    5.6930   45.0340 O.2   276  ILE276     -0.2718
    132  CB        46.3400    5.9760   47.8510 C.3   276  ILE276      0.0266
    133  CG1       47.4820    5.2970   47.1100 C.3   276  ILE276      0.0019
    134  CG2       45.2920    5.0110   48.3660 C.3   276  ILE276      0.0020
    135  CD1       47.9850    4.0800   47.8170 C.3   276  ILE276      0.0001
    136  N         46.2530    7.7290   44.7540 N.am  277  ASN277     -0.1960
    137  CA        46.3570    7.6400   43.3150 C.3   277  ASN277      0.1819
    138  C         47.7050    8.2350   42.9520 C.2   277  ASN277      0.2621
    139  O         48.2810    8.9810   43.7460 O.2   277  ASN277     -0.2715
    140  CB        45.2380    8.4810   42.7150 C.3   277  ASN277      0.1195
    141  CG        44.9310    8.1130   41.2940 C.2   277  ASN277      0.2630
    142  OD1       45.8030    8.1450   40.4320 O.2   277  ASN277     -0.2716
    143  ND2       43.6810    7.7600   41.0350 N.am  277  ASN277     -0.0877
    144  N         48.2290    7.8970   41.7800 N.am  278  LYS278     -0.1963
    145  CA        49.5180    8.4430   41.3720 C.3   278  LYS278      0.1728
    146  C         49.3440    9.7100   40.5430 C.2   278  LYS278      0.2616
    147  O         50.3090   10.4210   40.2630 O.2   278  LYS278     -0.2715
    148  CB        50.3390    7.4070   40.6000 C.3   278  LYS278      0.0311
    149  CG        50.0650    7.3200   39.1060 C.3   278  LYS278      0.0038
    150  CD        50.9550    6.2600   38.4620 C.3   278  LYS278      0.0206
    151  CE        52.4280    6.4750   38.8190 C.3   278  LYS278      0.1093
    152  NZ        53.3010    5.3460   38.3750 N.3   278  LYS278     -0.1314
    153  N         48.1030    9.9770   40.1520 N.am  279  ASP279     -0.1971
    154  CA        47.7650   11.1440   39.3560 C.3   279  ASP279      0.1709
    155  C         47.2200   12.2230   40.2790 C.2   279  ASP279      0.2293
    156  O         46.0640   12.1570   40.6950 O.2   279  ASP279     -0.2864
    157  CB        46.7140   10.7660   38.3000 C.3   279  ASP279      0.1436
    158  CG        46.3020   11.9410   37.4180 C.2   279  ASP279      0.3671
    159  OD1       47.0410   12.9470   37.3440 O.co2 279  ASP279     -0.2456
    160  OD2       45.2310   11.8500   36.7800 O.co2 279  ASP279     -0.2456
    161  N         43.6760   13.4480   39.4090 N.3   282  ALA282     -0.1245
    162  CA        42.4970   12.5840   39.3030 C.3   282  ALA282      0.1562
    163  C         41.3440   13.2210   40.0860 C.2   282  ALA282      0.2260
    164  O         41.5290   13.6920   41.2030 O.2   282  ALA282     -0.2867
    165  CB        42.8090   11.1860   39.8340 C.3   282  ALA282      0.0290
    166  N         50.8110    8.7960   45.2950 N.3   294  GLY294     -0.1210
    167  CA        51.9490    7.9020   45.1970 C.3   294  GLY294      0.1956
    168  C         51.5960    6.6010   44.5180 C.2   294  GLY294      0.2612
    169  O         50.4570    6.3890   44.1020 O.2   294  GLY294     -0.2717
    170  N         52.5790    5.7190   44.4010 N.am  295  ASP295     -0.1959
    171  CA        52.3580    4.4330   43.7580 C.3   295  ASP295      0.1840
    172  C         51.6710    3.4920   44.7320 C.2   295  ASP295      0.2622
    173  O         52.2330    3.1390   45.7640 O.2   295  ASP295     -0.2715
    174  CB        53.6930    3.8400   43.2950 C.3   295  ASP295      0.1450
    175  CG        53.5270    2.5870   42.4500 C.2   295  ASP295      0.3671
    176  OD1       52.4080    2.0500   42.3710 O.co2 295  ASP295     -0.2456
    177  OD2       54.5290    2.1260   41.8650 O.co2 295  ASP295     -0.2456
    178  N         50.4620    3.0730   44.3910 N.am  296  LEU296     -0.1963
    179  CA        49.7010    2.1620   45.2330 C.3   296  LEU296      0.1728
    180  C         50.4540    0.8820   45.5700 C.2   296  LEU296      0.2616
    181  O         50.1470    0.2410   46.5590 O.2   296  LEU296     -0.2715
    182  CB        48.3570    1.8200   44.5760 C.3   296  LEU296      0.0311
    183  CG        48.2610    0.9390   43.3150 C.3   296  LEU296      0.0022
    184  CD1       48.4510   -0.5440   43.6610 C.3   296  LEU296      0.0001
    185  CD2       46.8850    1.1210   42.6840 C.3   296  LEU296      0.0001
    186  N         51.3990    0.4840   44.7230 N.am  297  PHE297     -0.1974
    187  CA        52.1810   -0.7340   44.9440 C.3   297  PHE297      0.1639
    188  C         53.2920   -0.5680   45.9660 C.2   297  PHE297      0.2290
    189  O         53.9810   -1.5300   46.3050 O.2   297  PHE297     -0.2864
    190  CB        52.7510   -1.2670   43.6270 C.3   297  PHE297      0.0560
    191  CG        51.7140   -1.8620   42.7190 C.ar  297  PHE297     -0.0200
    192  CD1       51.1580   -3.1060   43.0020 C.ar  297  PHE297     -0.0042
    193  CD2       51.2740   -1.1670   41.5940 C.ar  297  PHE297     -0.0042
    194  CE1       50.1810   -3.6490   42.1800 C.ar  297  PHE297     -0.0003
    195  CE2       50.2940   -1.7010   40.7610 C.ar  297  PHE297     -0.0003
    196  CZ        49.7450   -2.9430   41.0560 C.ar  297  PHE297     -0.0000
@<TRIPOS>BOND
     1    36    34    1
     2    35    34    1
     3    34    33    2
     4    14    13    1
     5    15    13    1
     6    33    32    1
     7    13    12    2
     8    12    11    1
     9    32    31    1
    10    11    10    1
    11    31    30    1
    12   117   115   am
    13    10     9    1
    14   115   116    2
    15   115   114    1
    16    40    39    2
    17    38    41    1
    18    38    37    1
    19    38    39    1
    20    30    27    1
    21   114   113    1
    22    29    28    2
    23    37    28   am
    24    28    27    1
    25     9     6    1
    26    76    75    1
    27    77    75    1
    28    27    26    1
    29    69    68    2
    30   113   110    1
    31   108   105    1
    32   160   158   ar
    33    70    68   am
    34     8     7    2
    35    75    72    1
    36    68    67    1
    37    99    98    1
    38     6     7    1
    39     6     5    1
    40   159   158   ar
    41   158   157    1
    42     7    16   am
    43    50    48   am
    44   105   106    1
    45   105   104    1
    46    98    95    1
    47    26    22   am
    48   109   110    1
    49    49    48    2
    50   110   111    1
    51    67    66    1
    52    72    71    1
    53    72    73    1
    54   106   107    2
    55    48    47    1
    56   157   154    1
    57     5     3   am
    58   152   151    1
    59    16    17    1
    60   150   151    1
    61   150   149    1
    62    23    22    2
    63    22    21    1
    64   104   102   am
    65    17    18    1
    66    71    64   am
    67    66    63    1
    68    25    24    1
    69   149   148    1
    70   111   118   am
    71   111   112    2
    72    95    94    1
    73    95    96    1
    74    74    73    2
    75    19    18    2
    76    65    64    2
    77    73    78   am
    78    64    63    1
    79   162   161    1
    80   162   165    1
    81   162   163    1
    82   154   153    1
    83   154   155    1
    84     3     4    2
    85     3     2    1
    86    24    21    1
    87   118   119    1
    88   103   102    2
    89   102   101    1
    90    94    88   am
    91    96    97    2
    92    96   100   am
    93    47    46    1
    94    21    20    1
    95    63    62    1
    96   100   101    1
    97   163   164    2
    98   153   146   am
    99    78    79    1
   100   147   146    2
   101   155   156    2
   102    85    84    2
   103     2     1    1
   104    62    60   am
   105   142   141    2
   106    46    43    1
   107   146   145    1
   108   122   119    1
   109   122   123    1
   110   148   145    1
   111   119   120    1
   112   195   196   ar
   113   195   193   ar
   114    88    87    1
   115    88    89    2
   116   143   141   am
   117   196   194   ar
   118    87    86    1
   119    87    90    1
   120    79    80    1
   121    84    86   am
   122    84    83    1
   123   141   140    1
   124    60    59    1
   125    60    61    2
   126   145   144    1
   127    92    90    1
   128   193   191   ar
   129   123   124   ar
   130   123   125   ar
   131   124   126   ar
   132   144   138   am
   133    59    58    1
   134    54    53    2
   135   177   175   ar
   136   120   121    2
   137    43    42    1
   138    43    44    1
   139    83    82    1
   140    90    91    1
   141   194   192   ar
   142    91    93    1
   143   176   175   ar
   144   175   174    1
   145    80    81    2
   146   185   183    1
   147    53    58   am
   148    53    52    1
   149   140   137    1
   150   191   192   ar
   151   191   190    1
   152    44    51   am
   153    44    45    2
   154   126   127   ar
   155   125   127   ar
   156   138   137    1
   157   138   139    2
   158    51    52    1
   159   174   171    1
   160   183   184    1
   161   183   182    1
   162   137   136    1
   163   190   187    1
   164    52    55    1
   165   171   170    1
   166   171   172    1
   167   169   168    2
   168   178   172   am
   169   178   179    1
   170   170   168   am
   171   168   167    1
   172   182   179    1
   173   186   187    1
   174   186   180   am
   175   172   173    2
   176   136   130   am
   177    55    56    1
   178    55    57    1
   179   187   188    1
   180   131   130    2
   181   167   166    1
   182   179   180    1
   183   130   129    1
   184   180   181    2
   185   188   189    2
   186   129   128    1
   187   129   132    1
   188   133   135    1
   189   133   132    1
   190   132   134    1
