@<TRIPOS>MOLECULE
tmp/1efvB01.pdb
 165 156 0 0 0
SMALL
GASTEIGER

@<TRIPOS>ATOM
      1  N         10.9100   39.2580   43.1170 N.3     6  ALA6       -0.1231
      2  CA        12.3480   39.1410   43.3070 C.3     6  ALA6        0.1694
      3  C         12.6890   37.8860   44.0980 C.2     6  ALA6        0.2592
      4  O         12.1930   37.6890   45.2090 O.2     6  ALA6       -0.2718
      5  CB        12.8840   40.3760   44.0120 C.3     6  ALA6        0.0304
      6  N         13.5380   37.0350   43.5140 N.am    7  VAL7       -0.1966
      7  CA        13.9410   35.7990   44.2010 C.3     7  VAL7        0.1727
      8  C         15.4590   35.7530   44.3390 C.2     7  VAL7        0.2616
      9  O         16.1930   36.1820   43.4400 O.2     7  VAL7       -0.2715
     10  CB        13.4730   34.5690   43.4100 C.3     7  VAL7        0.0290
     11  CG1       11.9520   34.5160   43.2640 C.3     7  VAL7        0.0023
     12  CG2       14.0470   34.5140   41.9860 C.3     7  VAL7        0.0023
     13  N         15.9120   35.2960   45.4960 N.am    8  LYS8       -0.1977
     14  CA        17.3370   35.2180   45.7520 C.3     8  LYS8        0.1596
     15  C         17.7900   33.7800   45.9580 C.2     8  LYS8        0.2287
     16  O         17.0650   32.9670   46.5290 O.2     8  LYS8       -0.2864
     17  CB        17.7090   36.0540   46.9810 C.3     8  LYS8        0.0298
     18  CG        19.2050   36.2130   47.1460 C.3     8  LYS8        0.0038
     19  CD        19.5840   36.8190   48.4690 C.3     8  LYS8        0.0206
     20  CE        21.0900   36.9630   48.5320 C.3     8  LYS8        0.1093
     21  NZ        21.5230   37.5400   49.8090 N.3     8  LYS8       -0.1314
     22  N         15.5990   31.2220   48.3830 N.3    36  ASN36      -0.1240
     23  CA        15.3810   31.7130   49.7310 C.3    36  ASN36       0.1653
     24  C         13.9120   31.4090   50.0710 C.2    36  ASN36       0.2266
     25  O         13.0180   31.6870   49.2720 O.2    36  ASN36      -0.2867
     26  CB        15.6780   33.2140   49.7440 C.3    36  ASN36       0.1155
     27  CG        15.3600   33.8730   51.0610 C.2    36  ASN36       0.2627
     28  OD1       14.6640   34.8770   51.0970 O.2    36  ASN36      -0.2716
     29  ND2       15.8910   33.3370   52.1450 N.am   36  ASN36      -0.0877
     30  N         11.3690   34.0730   49.5840 N.3    39  CYS39      -0.1235
     31  CA        11.1380   34.3690   48.1710 C.3    39  CYS39       0.1677
     32  C         10.1320   33.3860   47.5700 C.2    39  CYS39       0.2270
     33  O          9.2840   33.7840   46.7730 O.2    39  CYS39      -0.2867
     34  CB        12.4470   34.3260   47.3810 C.3    39  CYS39       0.0956
     35  SG        13.6960   35.5290   47.8880 S.3    39  CYS39      -0.0801
     36  N         12.6470   37.7860   38.9050 N.3    61  VAL61      -0.1231
     37  CA        13.9530   38.3980   38.6830 C.3    61  VAL61       0.1692
     38  C         14.9440   38.0810   39.8030 C.2    61  VAL61       0.2593
     39  O         14.5710   38.0230   40.9780 O.2    61  VAL61      -0.2718
     40  CB        13.8190   39.9380   38.4970 C.3    61  VAL61       0.0266
     41  CG1       13.0570   40.5490   39.6550 C.3    61  VAL61       0.0020
     42  CG2       15.1900   40.5950   38.3610 C.3    61  VAL61       0.0020
     43  N         16.2010   37.8420   39.4290 N.am   62  SER62      -0.1938
     44  CA        17.2530   37.5360   40.3890 C.3    62  SER62       0.2055
     45  C         18.5570   38.2080   39.9750 C.2    62  SER62       0.2643
     46  O         18.8900   38.2500   38.7890 O.2    62  SER62      -0.2714
     47  CB        17.4590   36.0250   40.4940 C.3    62  SER62       0.2130
     48  OG        18.3520   35.7070   41.5480 O.3    62  SER62      -0.2179
     49  N         19.2800   38.7520   40.9480 N.am   63  CYS63      -0.1967
     50  CA        20.5540   39.4160   40.6790 C.3    63  CYS63       0.1712
     51  C         21.6850   38.5630   41.2350 C.2    63  CYS63       0.2296
     52  O         21.5840   38.0580   42.3530 O.2    63  CYS63      -0.2864
     53  CB        20.5920   40.7880   41.3500 C.3    63  CYS63       0.0983
     54  SG        19.1380   41.8010   41.0560 S.3    63  CYS63      -0.0798
     55  N         27.4150   42.6100   46.5680 N.3    96  LEU96      -0.1231
     56  CA        26.0350   42.9550   46.2470 C.3    96  LEU96       0.1693
     57  C         25.1540   42.9470   47.4970 C.2    96  LEU96       0.2593
     58  O         25.0460   41.9320   48.1850 O.2    96  LEU96      -0.2718
     59  CB        25.4840   41.9750   45.2070 C.3    96  LEU96       0.0284
     60  CG        24.2940   42.4670   44.3890 C.3    96  LEU96       0.0019
     61  CD1       24.7570   43.5690   43.4490 C.3    96  LEU96       0.0001
     62  CD2       23.7050   41.3130   43.6000 C.3    96  LEU96       0.0001
     63  N         24.5310   44.0820   47.7900 N.am   97  GLY97      -0.1943
     64  CA        23.6730   44.1650   48.9550 C.3    97  GLY97       0.1998
     65  C         22.3140   44.7520   48.6360 C.2    97  GLY97       0.2480
     66  O         22.0510   45.1200   47.4950 O.2    97  GLY97      -0.2729
     67  N         21.4250   44.8670   49.6310 N.am   98  PRO98      -0.2726
     68  CA        20.0750   45.4170   49.4710 C.3    98  PRO98       0.1402
     69  C         20.0070   46.7330   48.6900 C.2    98  PRO98       0.2269
     70  O         19.0960   46.9260   47.8870 O.2    98  PRO98      -0.2865
     71  CB        19.6200   45.5950   50.9140 C.3    98  PRO98       0.0296
     72  CG        20.2210   44.4180   51.5780 C.3    98  PRO98       0.0237
     73  CD        21.6290   44.3800   51.0050 C.3    98  PRO98       0.0939
     74  N         20.5150   45.8960   44.9610 N.3   101  VAL101     -0.1245
     75  CA        19.3650   45.1260   44.5020 C.3   101  VAL101      0.1561
     76  C         18.1230   46.0140   44.4170 C.2   101  VAL101      0.2260
     77  O         17.3940   45.9680   43.4250 O.2   101  VAL101     -0.2867
     78  CB        19.0950   43.9010   45.3950 C.3   101  VAL101      0.0252
     79  CG1       17.8890   43.1300   44.8790 C.3   101  VAL101      0.0019
     80  CG2       20.3170   42.9930   45.4180 C.3   101  VAL101      0.0019
     81  N         15.8380   46.7550   41.1500 N.3   105  LEU105     -0.1245
     82  CA        14.4080   46.4650   41.1170 C.3   105  LEU105      0.1561
     83  C         13.5670   47.7050   40.8100 C.2   105  LEU105      0.2260
     84  O         12.5210   47.6120   40.1560 O.2   105  LEU105     -0.2867
     85  CB        13.9600   45.8300   42.4350 C.3   105  LEU105      0.0270
     86  CG        14.6040   44.5010   42.8250 C.3   105  LEU105      0.0019
     87  CD1       14.1660   44.1230   44.2310 C.3   105  LEU105      0.0001
     88  CD2       14.2380   43.4210   41.8300 C.3   105  LEU105      0.0001
     89  N          8.4640   40.7400   47.2100 N.3   119  LEU119     -0.1231
     90  CA         9.7460   40.2410   47.7290 C.3   119  LEU119      0.1693
     91  C          9.5060   39.4000   48.9750 C.2   119  LEU119      0.2593
     92  O          8.4480   39.5030   49.6120 O.2   119  LEU119     -0.2718
     93  CB        10.6910   41.3880   48.1380 C.3   119  LEU119      0.0284
     94  CG        10.8810   42.5040   47.1110 C.3   119  LEU119      0.0019
     95  CD1        9.8280   43.6100   47.2360 C.3   119  LEU119      0.0001
     96  CD2       12.2450   43.1950   47.2650 C.3   119  LEU119      0.0001
     97  N         10.5010   38.6480   49.3720 N.am  120  GLY120     -0.1942
     98  CA        10.3920   38.0090   50.6850 C.3   120  GLY120      0.2014
     99  C         10.7340   39.0260   51.7560 C.2   120  GLY120      0.2639
    100  O         11.2580   40.1040   51.4470 O.2   120  GLY120     -0.2714
    101  N         10.4140   38.7200   53.0130 N.am  121  LYS121     -0.1963
    102  CA        10.6810   39.8140   53.9530 C.3   121  LYS121      0.1728
    103  C         12.1600   39.8300   54.3360 C.2   121  LYS121      0.2616
    104  O         12.7370   40.8980   54.5980 O.2   121  LYS121     -0.2715
    105  CB         9.8210   39.6380   55.2110 C.3   121  LYS121      0.0311
    106  CG        10.3860   38.6720   56.2540 C.3   121  LYS121      0.0038
    107  CD         9.5800   38.7410   57.5520 C.3   121  LYS121      0.0206
    108  CE        10.1180   37.8610   58.6680 C.3   121  LYS121      0.1093
    109  NZ         9.3620   38.0240   59.9180 N.3   121  LYS121     -0.1314
    110  N         12.9050   38.7400   54.1470 N.am  122  GLN122     -0.1963
    111  CA        14.3450   38.7530   54.3640 C.3   122  GLN122      0.1733
    112  C         15.0390   37.5420   53.7660 C.2   122  GLN122      0.2616
    113  O         14.4170   36.5050   53.5420 O.2   122  GLN122     -0.2715
    114  CB        14.6910   38.8790   55.8510 C.3   122  GLN122      0.0408
    115  CG        14.5160   37.6240   56.6770 C.3   122  GLN122      0.0908
    116  CD        14.8130   37.8670   58.1420 C.2   122  GLN122      0.2608
    117  OE1       15.7790   37.3430   58.6910 O.2   122  GLN122     -0.2717
    118  NE2       13.9990   38.6870   58.7710 N.am  122  GLN122     -0.0878
    119  N         16.2880   37.7330   53.4400 N.am  123  ALA123     -0.1977
    120  CA        17.1290   36.6440   52.9400 C.3   123  ALA123      0.1597
    121  C         17.8080   35.9520   54.1120 C.2   123  ALA123      0.2287
    122  O         18.3320   36.6150   55.0170 O.2   123  ALA123     -0.2864
    123  CB        18.1950   37.2030   51.9950 C.3   123  ALA123      0.0319
    124  N         22.0100   37.0530   54.4640 N.3   126  ASP126     -0.1239
    125  CA        22.3920   38.3520   54.9960 C.3   126  ASP126      0.1674
    126  C         21.4960   38.8300   56.1350 C.2   126  ASP126      0.2266
    127  O         21.8770   39.7190   56.8870 O.2   126  ASP126     -0.2867
    128  CB        22.5260   39.4230   53.8900 C.3   126  ASP126      0.1410
    129  CG        21.2240   39.6990   53.1200 C.2   126  ASP126      0.3668
    130  OD1       20.1030   39.4750   53.6190 O.co2 126  ASP126     -0.2456
    131  OD2       21.3350   40.1990   51.9870 O.co2 126  ASP126     -0.2456
    132  N         19.1000   40.7820   56.2640 N.3   128  CYS128     -0.1221
    133  CA        19.0350   42.2510   56.3140 C.3   128  CYS128      0.1808
    134  C         17.5990   42.7390   56.5100 C.2   128  CYS128      0.2601
    135  O         17.3540   43.6420   57.3250 O.2   128  CYS128     -0.2717
    136  CB        19.5720   42.8410   55.0230 C.3   128  CYS128      0.0970
    137  SG        21.4180   42.9560   55.0310 S.3   128  CYS128     -0.0800
    138  N         16.5870   42.2260   55.7960 N.am  129  ASN129     -0.1960
    139  CA        15.2120   42.7250   55.8990 C.3   129  ASN129      0.1819
    140  C         15.2370   44.2110   55.4860 C.2   129  ASN129      0.2621
    141  O         14.7810   45.0800   56.2320 O.2   129  ASN129     -0.2715
    142  CB        14.6940   42.5870   57.3390 C.3   129  ASN129      0.1195
    143  CG        13.1740   42.6190   57.4340 C.2   129  ASN129      0.2630
    144  OD1       12.5960   42.0110   58.3270 O.2   129  ASN129     -0.2716
    145  ND2       12.5250   43.3300   56.5280 N.am  129  ASN129     -0.0877
    146  N         15.7550   44.4920   54.2870 N.am  130  GLN130     -0.1963
    147  CA        15.8640   45.8720   53.7990 C.3   130  GLN130      0.1733
    148  C         15.4120   46.1040   52.3620 C.2   130  GLN130      0.2617
    149  O         14.7940   47.1230   52.0710 O.2   130  GLN130     -0.2715
    150  CB        17.3140   46.3560   53.8690 C.3   130  GLN130      0.0408
    151  CG        17.9750   46.3700   55.2360 C.3   130  GLN130      0.0908
    152  CD        19.4780   46.5420   55.1120 C.2   130  GLN130      0.2608
    153  OE1       20.0170   46.6110   54.0060 O.2   130  GLN130     -0.2717
    154  NE2       20.1610   46.6070   56.2360 N.am  130  GLN130     -0.0878
    155  N         15.6900   45.1560   51.4640 N.am  131  THR131     -0.1937
    156  CA        15.5160   45.3430   50.0130 C.3   131  THR131      0.2028
    157  C         14.0940   45.8200   49.6840 C.2   131  THR131      0.2642
    158  O         13.9240   46.8290   48.9780 O.2   131  THR131     -0.2714
    159  CB        15.7810   44.0330   49.2710 C.3   131  THR131      0.1808
    160  OG1       17.0840   43.5580   49.5960 O.3   131  THR131     -0.2208
    161  CG2       15.7110   44.1990   47.7510 C.3   131  THR131      0.0379
    162  N         12.9900   45.1950   50.1610 N.am  132  GLY132     -0.1954
    163  CA        11.6390   45.6440   49.8590 C.3   132  GLY132      0.1869
    164  C         11.3630   47.0850   50.2520 C.2   132  GLY132      0.2309
    165  O         10.8270   47.8590   49.4550 O.2   132  GLY132     -0.2863
@<TRIPOS>BOND
     1    42    40    1
     2    40    37    1
     3    40    41    1
     4    37    36    1
     5    37    38    1
     6    46    45    2
     7    43    38   am
     8    43    44    1
     9    38    39    2
    10    45    44    1
    11    45    49   am
    12    84    83    2
    13    44    47    1
    14    47    48    1
    15    50    49    1
    16    50    51    1
    17    50    53    1
    18    83    82    1
    19    54    53    1
    20    82    81    1
    21    82    85    1
    22    51    52    2
    23    88    86    1
    24    12    10    1
    25    85    86    1
    26    86    87    1
    27     1     2    1
    28    11    10    1
    29     2     5    1
    30     2     3    1
    31    10     7    1
    32    77    76    2
    33     9     8    2
    34    61    60    1
    35     6     3   am
    36     6     7    1
    37    62    60    1
    38     3     4    2
    39     7     8    1
    40     8    13   am
    41    60    59    1
    42    76    75    1
    43    75    74    1
    44    75    78    1
    45    79    78    1
    46    59    56    1
    47    78    80    1
    48    13    14    1
    49    14    15    1
    50    14    17    1
    51    15    16    2
    52    56    55    1
    53    56    57    1
    54    33    32    2
    55    17    18    1
    56    94    95    1
    57    94    96    1
    58    94    93    1
    59    18    19    1
    60    89    90    1
    61    34    35    1
    62    34    31    1
    63    66    65    2
    64    57    63   am
    65    57    58    2
    66    32    31    1
    67    90    93    1
    68    90    91    1
    69   161   159    1
    70    63    64    1
    71    70    69    2
    72    31    30    1
    73    22    23    1
    74    19    20    1
    75    20    21    1
    76    65    64    1
    77    65    67   am
    78    69    68    1
    79    91    97   am
    80    91    92    2
    81   158   157    2
    82   159   160    1
    83   159   156    1
    84    25    24    2
    85    97    98    1
    86   165   164    2
    87    68    67    1
    88    68    71    1
    89    67    73    1
    90   157   156    1
    91   157   162   am
    92    23    26    1
    93    23    24    1
    94    26    27    1
    95   163   162    1
    96   163   164    1
    97   156   155    1
    98    98    99    1
    99    71    72    1
   100    73    72    1
   101    27    28    2
   102    27    29   am
   103   100    99    2
   104   155   148   am
   105    99   101   am
   106   131   129   ar
   107   123   120    1
   108   149   148    2
   109   148   147    1
   110   120   119    1
   111   120   121    1
   112   101   102    1
   113   129   130   ar
   114   129   128    1
   115   119   112   am
   116   113   112    2
   117   112   111    1
   118   147   150    1
   119   147   146    1
   120   150   151    1
   121   128   125    1
   122   102   103    1
   123   102   105    1
   124   153   152    2
   125   121   122    2
   126   110   103   am
   127   110   111    1
   128   146   140   am
   129   103   104    2
   130   111   114    1
   131   124   125    1
   132   125   126    1
   133   136   137    1
   134   136   133    1
   135   152   151    1
   136   152   154   am
   137   105   106    1
   138   140   139    1
   139   140   141    2
   140   138   139    1
   141   138   134   am
   142   114   115    1
   143   139   142    1
   144   126   127    2
   145   106   107    1
   146   132   133    1
   147   133   134    1
   148   134   135    2
   149   145   143   am
   150   115   116    1
   151   142   143    1
   152   143   144    2
   153   107   108    1
   154   116   117    2
   155   116   118   am
   156   108   109    1
