@<TRIPOS>MOLECULE
tmp/1efyA00.pdb
 137 134 0 0 0
SMALL
GASTEIGER

@<TRIPOS>ATOM
      1  N         32.6710   23.0260   11.7370 N.3   102  GLN102     -0.1245
      2  CA        34.1130   23.1700   11.8960 C.3   102  GLN102      0.1566
      3  C         34.8180   23.4610   10.5780 C.2   102  GLN102      0.2260
      4  O         35.8580   24.1100   10.5640 O.2   102  GLN102     -0.2867
      5  CB        34.7180   21.9440   12.5710 C.3   102  GLN102      0.0367
      6  CG        34.8960   22.1110   14.0730 C.3   102  GLN102      0.0905
      7  CD        33.9820   21.2160   14.8810 C.2   102  GLN102      0.2608
      8  OE1       34.1880   19.9950   14.9490 O.2   102  GLN102     -0.2717
      9  NE2       32.9710   21.8150   15.5150 N.am  102  GLN102     -0.0878
     10  N         34.6080   27.0990   10.3310 N.3   105  ASP105     -0.1225
     11  CA        35.5060   27.8260   11.2360 C.3   105  ASP105      0.1805
     12  C         36.8590   27.9880   10.5310 C.2   105  ASP105      0.2597
     13  O         37.4600   29.0580   10.5770 O.2   105  ASP105     -0.2718
     14  CB        35.7120   27.0750   12.5590 C.3   105  ASP105      0.1424
     15  CG        34.4630   27.0550   13.4510 C.2   105  ASP105      0.3668
     16  OD1       33.4970   27.7980   13.2040 O.co2 105  ASP105     -0.2456
     17  OD2       34.4560   26.2830   14.4310 O.co2 105  ASP105     -0.2456
     18  N         37.3030   26.9310    9.8450 N.am  106  ASN106     -0.1974
     19  CA        38.5700   26.9390    9.1080 C.3   106  ASN106      0.1688
     20  C         38.5260   27.8080    7.8590 C.2   106  ASN106      0.2292
     21  O         39.5010   28.4870    7.5360 O.2   106  ASN106     -0.2864
     22  CB        38.9750   25.5220    8.7130 C.3   106  ASN106      0.1181
     23  CG        39.4810   24.7190    9.8790 C.2   106  ASN106      0.2629
     24  OD1       40.6130   24.8950   10.3140 O.2   106  ASN106     -0.2716
     25  ND2       38.6530   23.8180   10.3830 N.am  106  ASN106     -0.0877
     26  N         47.3660   26.2100   22.6790 N.3   201  HIS201     -0.1226
     27  CA        46.3090   26.3170   21.6880 C.3   201  HIS201      0.1752
     28  C         46.8250   25.8520   20.3180 C.2   201  HIS201      0.2596
     29  O         47.6470   26.5110   19.6930 O.2   201  HIS201     -0.2718
     30  CB        45.7270   27.7240   21.5920 C.3   201  HIS201      0.0759
     31  CG        44.5610   27.8000   20.6600 C.ar  201  HIS201      0.0818
     32  ND1       43.2750   27.4440   21.0070 N.ar  201  HIS201     -0.2268
     33  CD2       44.5190   28.0700   19.3280 C.ar  201  HIS201      0.1154
     34  CE1       42.5130   27.4920   19.9000 C.ar  201  HIS201      0.1986
     35  NE2       43.2240   27.8680   18.8530 N.ar  201  HIS201     -0.2212
     36  N         46.3520   24.6930   19.8740 N.am  202  GLY202     -0.1957
     37  CA        46.7800   24.1670   18.5980 C.3   202  GLY202      0.1869
     38  C         45.7790   24.4580   17.5000 C.2   202  GLY202      0.2309
     39  O         44.5800   24.5940   17.7590 O.2   202  GLY202     -0.2863
     40  N         27.8420   22.7330   17.9290 N.3   227  GLY227     -0.1210
     41  CA        29.1240   22.4060   17.3260 C.3   227  GLY227      0.1956
     42  C         30.3210   22.6830   18.2210 C.2   227  GLY227      0.2612
     43  O         31.4680   22.5190   17.7890 O.2   227  GLY227     -0.2717
     44  N         30.0530   23.1060   19.4620 N.am  228  TYR228     -0.1962
     45  CA        31.0920   23.4240   20.4450 C.3   228  TYR228      0.1771
     46  C         30.7030   22.9410   21.8520 C.2   228  TYR228      0.2619
     47  O         29.7840   23.4810   22.4790 O.2   228  TYR228     -0.2715
     48  CB        31.3370   24.9310   20.4690 C.3   228  TYR228      0.0574
     49  CG        31.4480   25.5450   19.1000 C.ar  228  TYR228     -0.0198
     50  CD1       32.6530   25.5230   18.4040 C.ar  228  TYR228     -0.0009
     51  CD2       30.3440   26.1400   18.4910 C.ar  228  TYR228     -0.0009
     52  CE1       32.7600   26.0810   17.1320 C.ar  228  TYR228      0.0417
     53  CE2       30.4410   26.6990   17.2210 C.ar  228  TYR228      0.0417
     54  CZ        31.6570   26.6670   16.5500 C.ar  228  TYR228      0.1957
     55  OH        31.7800   27.2550   15.3170 O.3   228  TYR228     -0.2866
     56  N         31.4500   21.9560   22.3490 N.am  229  MET229     -0.1977
     57  CA        31.2270   21.3450   23.6600 C.3   229  MET229      0.1605
     58  C         30.7780   22.3270   24.7450 C.2   229  MET229      0.2287
     59  O         29.5850   22.4150   25.0390 O.2   229  MET229     -0.2864
     60  CB        32.4850   20.5730   24.0990 C.3   229  MET229      0.0413
     61  CG        32.2930   19.6300   25.2960 C.3   229  MET229      0.0598
     62  SD        33.6810   18.4640   25.5250 S.3   229  MET229     -0.1393
     63  CE        32.9690   17.2410   26.6280 C.3   229  MET229      0.0692
     64  N         39.1800   27.7260   23.4230 N.3   235  TYR235     -0.1227
     65  CA        39.6940   26.5590   24.1390 C.3   235  TYR235      0.1736
     66  C         41.2090   26.4620   24.2670 C.2   235  TYR235      0.2595
     67  O         41.9380   26.7330   23.3260 O.2   235  TYR235     -0.2718
     68  CB        39.1660   25.2690   23.5040 C.3   235  TYR235      0.0548
     69  CG        37.6630   25.0630   23.5890 C.ar  235  TYR235     -0.0200
     70  CD1       36.7750   25.9850   23.0300 C.ar  235  TYR235     -0.0009
     71  CD2       37.1320   23.9390   24.2290 C.ar  235  TYR235     -0.0009
     72  CE1       35.3940   25.7990   23.1090 C.ar  235  TYR235      0.0417
     73  CE2       35.7570   23.7400   24.3110 C.ar  235  TYR235      0.0417
     74  CZ        34.8960   24.6740   23.7530 C.ar  235  TYR235      0.1957
     75  OH        33.5370   24.4920   23.8540 O.3   235  TYR235     -0.2866
     76  N         41.6600   26.0160   25.4370 N.am  236  PHE236     -0.1962
     77  CA        43.0790   25.8540   25.7500 C.3   236  PHE236      0.1771
     78  C         43.2840   24.5580   26.5450 C.2   236  PHE236      0.2619
     79  O         42.3450   24.0160   27.1220 O.2   236  PHE236     -0.2715
     80  CB        43.5830   27.0190   26.6210 C.3   236  PHE236      0.0574
     81  CG        43.4940   28.3580   25.9700 C.ar  236  PHE236     -0.0200
     82  CD1       44.5420   28.8400   25.2110 C.ar  236  PHE236     -0.0042
     83  CD2       42.3630   29.1390   26.1190 C.ar  236  PHE236     -0.0042
     84  CE1       44.4640   30.0800   24.6060 C.ar  236  PHE236     -0.0003
     85  CE2       42.2740   30.3820   25.5180 C.ar  236  PHE236     -0.0003
     86  CZ        43.3260   30.8530   24.7600 C.ar  236  PHE236     -0.0000
     87  N         44.5270   24.1010   26.6190 N.am  237  ALA237     -0.1977
     88  CA        44.8590   22.8910   27.3580 C.3   237  ALA237      0.1597
     89  C         46.1390   23.0890   28.1790 C.2   237  ALA237      0.2287
     90  O         46.8610   24.0750   27.9930 O.2   237  ALA237     -0.2864
     91  CB        45.0310   21.7270   26.3920 C.3   237  ALA237      0.0319
     92  N         47.3140   17.3700   23.9360 N.3   242  LYS242     -0.1231
     93  CA        45.8810   17.5430   23.6750 C.3   242  LYS242      0.1693
     94  C         45.6740   18.6360   22.6230 C.2   242  LYS242      0.2592
     95  O         44.8130   18.5280   21.7580 O.2   242  LYS242     -0.2718
     96  CB        45.1210   17.9070   24.9530 C.3   242  LYS242      0.0285
     97  CG        43.6400   18.1600   24.7200 C.3   242  LYS242      0.0035
     98  CD        42.8670   18.1270   26.0160 C.3   242  LYS242      0.0206
     99  CE        41.3780   18.2450   25.7610 C.3   242  LYS242      0.1093
    100  NZ        40.5970   17.9510   26.9980 N.3   242  LYS242     -0.1314
    101  N         46.4670   19.6940   22.7140 N.am  243  SER243     -0.1952
    102  CA        46.3760   20.7830   21.7630 C.3   243  SER243      0.1924
    103  C         47.0490   20.4160   20.4440 C.2   243  SER243      0.2314
    104  O         46.5490   20.7430   19.3720 O.2   243  SER243     -0.2863
    105  CB        47.0290   22.0370   22.3470 C.3   243  SER243      0.2116
    106  OG        46.3000   22.5000   23.4670 O.3   243  SER243     -0.2180
    107  N         45.1750   19.0450   17.6050 N.3   246  TYR246     -0.1241
    108  CA        44.3690   19.9860   16.8300 C.3   246  TYR246      0.1605
    109  C         45.1350   20.6840   15.7160 C.2   246  TYR246      0.2264
    110  O         44.5790   21.5250   15.0200 O.2   246  TYR246     -0.2867
    111  CB        43.7260   21.0190   17.7460 C.3   246  TYR246      0.0534
    112  CG        42.6040   20.4500   18.5710 C.ar  246  TYR246     -0.0201
    113  CD1       41.3340   20.2740   18.0260 C.ar  246  TYR246     -0.0009
    114  CD2       42.8110   20.0710   19.8960 C.ar  246  TYR246     -0.0009
    115  CE1       40.2900   19.7290   18.7820 C.ar  246  TYR246      0.0417
    116  CE2       41.7810   19.5290   20.6600 C.ar  246  TYR246      0.0417
    117  CZ        40.5230   19.3600   20.0980 C.ar  246  TYR246      0.1957
    118  OH        39.5060   18.8240   20.8530 O.3   246  TYR246     -0.2866
    119  N         46.4690   18.9450   13.3390 N.3   248  HIS248     -0.1241
    120  CA        46.1300   18.1070   12.1940 C.3   248  HIS248      0.1621
    121  C         47.3230   17.8740   11.2860 C.2   248  HIS248      0.2264
    122  O         47.3170   18.2740   10.1230 O.2   248  HIS248     -0.2867
    123  CB        44.9560   18.7000   11.4010 C.3   248  HIS248      0.0745
    124  CG        43.6320   18.5710   12.0950 C.ar  248  HIS248      0.0817
    125  ND1       42.9750   19.6470   12.6580 N.ar  248  HIS248     -0.2268
    126  CD2       42.8580   17.4880   12.3450 C.ar  248  HIS248      0.1154
    127  CE1       41.8570   19.2310   13.2280 C.ar  248  HIS248      0.1986
    128  NE2       41.7640   17.9250   13.0520 N.ar  248  HIS248     -0.2212
    129  N         40.4880   21.1070   30.1770 N.3   327  GLU327     -0.1245
    130  CA        40.1490   22.0080   29.0890 C.3   327  GLU327      0.1567
    131  C         39.8530   23.3470   29.7460 C.2   327  GLU327      0.2260
    132  O         39.2770   23.3810   30.8300 O.2   327  GLU327     -0.2867
    133  CB        38.9050   21.5150   28.3600 C.3   327  GLU327      0.0388
    134  CG        39.2060   20.7140   27.1340 C.3   327  GLU327      0.1160
    135  CD        37.9630   20.1780   26.4620 C.2   327  GLU327      0.3649
    136  OE1       37.0200   20.9670   26.2310 O.co2 327  GLU327     -0.2457
    137  OE2       37.9420   18.9630   26.1600 O.co2 327  GLU327     -0.2457
@<TRIPOS>BOND
     1    21    20    2
     2    20    19    1
     3    22    19    1
     4    22    23    1
     5    19    18    1
     6    18    12   am
     7    23    24    2
     8    23    25   am
     9   122   121    2
    10    10    11    1
    11    12    13    2
    12    12    11    1
    13     4     3    2
    14     3     2    1
    15    11    14    1
    16   121   120    1
    17   123   124    1
    18   123   120    1
    19     1     2    1
    20     2     5    1
    21   124   126   ar
    22   124   125   ar
    23   120   119    1
    24   126   128   ar
    25    14    15    1
    26     5     6    1
    27   125   127   ar
    28   128   127   ar
    29    16    15   ar
    30    15    17   ar
    31     6     7    1
    32     7     8    2
    33     7     9   am
    34   110   109    2
    35    55    54    1
    36   109   108    1
    37    54    52   ar
    38    54    53   ar
    39   108   107    1
    40   108   111    1
    41    52    50   ar
    42    53    51   ar
    43    41    40    1
    44    41    42    1
    45    38    39    2
    46    38    37    1
    47   111   112    1
    48    43    42    2
    49   113   112   ar
    50   113   115   ar
    51    42    44   am
    52    50    49   ar
    53    51    49   ar
    54   112   114   ar
    55    37    36    1
    56   115   117   ar
    57    35    33   ar
    58    35    34   ar
    59    49    48    1
    60    33    31   ar
    61   104   103    2
    62    44    45    1
    63    29    28    2
    64    36    28   am
    65   114   116   ar
    66    34    32   ar
    67   117   116   ar
    68   117   118    1
    69    28    27    1
    70   103   102    1
    71    45    48    1
    72    45    46    1
    73    31    32   ar
    74    31    30    1
    75    30    27    1
    76    27    26    1
    77    95    94    2
    78   102   105    1
    79   102   101    1
    80    46    56   am
    81    46    47    2
    82   105   106    1
    83    56    57    1
    84    94   101   am
    85    94    93    1
    86    70    72   ar
    87    70    69   ar
    88    72    74   ar
    89    67    66    2
    90    64    65    1
    91    68    69    1
    92    68    65    1
    93    69    71   ar
    94    57    60    1
    95    57    58    1
    96    93    92    1
    97    93    96    1
    98    74    75    1
    99    74    73   ar
   100    60    61    1
   101    65    66    1
   102    71    73   ar
   103    66    76   am
   104    84    86   ar
   105    84    82   ar
   106    97    96    1
   107    97    98    1
   108    58    59    2
   109    86    85   ar
   110    82    81   ar
   111    61    62    1
   112    76    77    1
   113    85    83   ar
   114    62    63    1
   115    77    78    1
   116    77    80    1
   117    99    98    1
   118    99   100    1
   119    81    83   ar
   120    81    80    1
   121   137   135   ar
   122   136   135   ar
   123    91    88    1
   124   135   134    1
   125    78    87   am
   126    78    79    2
   127    87    88    1
   128   134   133    1
   129    88    89    1
   130    90    89    2
   131   133   130    1
   132   130   131    1
   133   130   129    1
   134   131   132    2
