@<TRIPOS>MOLECULE
tmp/1eg2A00.pdb
 140 137 0 0 0
SMALL
GASTEIGER

@<TRIPOS>ATOM
      1  N         20.5700   26.9960   -9.4470 N.3    10  CYS10      -0.1221
      2  CA        20.5660   28.4110   -9.0970 C.3    10  CYS10       0.1808
      3  C         21.3510   28.6480   -7.8150 C.2    10  CYS10       0.2601
      4  O         21.6710   27.6990   -7.0990 O.2    10  CYS10      -0.2717
      5  CB        19.1270   28.9210   -8.9120 C.3    10  CYS10       0.0970
      6  SG        18.1410   28.1020   -7.6030 S.3    10  CYS10      -0.0800
      7  N         21.6550   29.9160   -7.5390 N.am   11  ASP11      -0.1959
      8  CA        22.3990   30.2980   -6.3390 C.3    11  ASP11       0.1840
      9  C         21.5560   30.0650   -5.0840 C.2    11  ASP11       0.2622
     10  O         20.3370   30.2210   -5.1140 O.2    11  ASP11      -0.2715
     11  CB        22.8200   31.7690   -6.4380 C.3    11  ASP11       0.1450
     12  CG        23.5970   32.2420   -5.2210 C.2    11  ASP11       0.3671
     13  OD1       22.9700   32.6970   -4.2360 O.co2  11  ASP11      -0.2456
     14  OD2       24.8410   32.1530   -5.2470 O.co2  11  ASP11      -0.2456
     15  N         22.2120   29.7020   -3.9810 N.am   12  CYS12      -0.1968
     16  CA        21.5030   29.4100   -2.7330 C.3    12  CYS12       0.1712
     17  C         20.6320   30.5600   -2.2170 C.2    12  CYS12       0.2296
     18  O         19.5710   30.3240   -1.6460 O.2    12  CYS12      -0.2864
     19  CB        22.4940   28.9940   -1.6430 C.3    12  CYS12       0.0983
     20  SG        23.6100   30.2960   -1.1010 S.3    12  CYS12      -0.0798
     21  N         25.9010   21.2060    3.3360 N.3    30  ASP30      -0.1225
     22  CA        27.3000   20.8270    3.1370 C.3    30  ASP30       0.1790
     23  C         27.8270   21.8910    2.1770 C.2    30  ASP30       0.2440
     24  O         27.9680   21.6590    0.9770 O.2    30  ASP30      -0.2733
     25  CB        27.3480   19.4210    2.5240 C.3    30  ASP30       0.1423
     26  CG        28.7530   18.9410    2.2440 C.2    30  ASP30       0.3668
     27  OD1       29.6950   19.4490    2.8820 O.co2  30  ASP30      -0.2456
     28  OD2       28.9090   18.0360    1.3850 O.co2  30  ASP30      -0.2456
     29  N         28.1140   23.0880    2.7110 N.am   31  PRO31      -0.2718
     30  CA        28.5920   24.2470    1.9600 C.3    31  PRO31       0.1520
     31  C         30.0300   24.3570    1.5240 C.2    31  PRO31       0.2440
     32  O         30.9160   23.6830    2.0420 O.2    31  PRO31      -0.2731
     33  CB        28.2460   25.3930    2.8890 C.3    31  PRO31       0.0310
     34  CG        28.7020   24.8140    4.2070 C.3    31  PRO31       0.0237
     35  CD        28.1850   23.3660    4.1600 C.3    31  PRO31       0.0939
     36  N         30.2700   25.2230    0.5370 N.am   32  PRO32      -0.2727
     37  CA        31.6380   25.4220    0.0690 C.3    32  PRO32       0.1402
     38  C         32.2610   26.1990    1.2290 C.2    32  PRO32       0.2269
     39  O         31.5480   26.9270    1.9320 O.2    32  PRO32      -0.2865
     40  CB        31.4560   26.2750   -1.1850 C.3    32  PRO32       0.0296
     41  CG        30.1770   27.0240   -0.9250 C.3    32  PRO32       0.0237
     42  CD        29.3010   25.9830   -0.2730 C.3    32  PRO32       0.0939
     43  N         34.0350   32.9970   -3.8050 N.3    36  MET36      -0.1245
     44  CA        34.4770   33.1230   -5.1880 C.3    36  MET36       0.1570
     45  C         35.2490   34.4190   -5.4010 C.2    36  MET36       0.2261
     46  O         35.0740   35.3790   -4.6570 O.2    36  MET36      -0.2867
     47  CB        33.2660   33.0980   -6.1230 C.3    36  MET36       0.0387
     48  CG        32.4320   31.8340   -6.0370 C.3    36  MET36       0.0595
     49  SD        33.3960   30.3750   -6.4400 S.3    36  MET36      -0.1393
     50  CE        33.8880   29.8050   -4.7910 C.3    36  MET36       0.0692
     51  N         30.0820   36.2870    3.7100 N.3    49  TRP49      -0.1241
     52  CA        29.2390   35.6760    2.6890 C.3    49  TRP49       0.1605
     53  C         28.2930   34.6520    3.3020 C.2    49  TRP49       0.2264
     54  O         27.0810   34.6890    3.0830 O.2    49  TRP49      -0.2867
     55  CB        30.0960   34.9740    1.6280 C.3    49  TRP49       0.0550
     56  CG        29.2770   34.1290    0.6810 C.ar   49  TRP49       0.0003
     57  CD1       28.3640   34.5730   -0.2330 C.ar   49  TRP49       0.0946
     58  CD2       29.2660   32.6990    0.5930 C.ar   49  TRP49       0.0152
     59  NE1       27.7830   33.5080   -0.8830 N.ar   49  TRP49      -0.2442
     60  CE2       28.3200   32.3460   -0.3950 C.ar   49  TRP49       0.0810
     61  CE3       29.9620   31.6800    1.2570 C.ar   49  TRP49       0.0012
     62  CZ2       28.0520   31.0160   -0.7380 C.ar   49  TRP49       0.0191
     63  CZ3       29.6950   30.3580    0.9180 C.ar   49  TRP49       0.0001
     64  CH2       28.7480   30.0390   -0.0720 C.ar   49  TRP49       0.0015
     65  N         30.1180   13.2610   -8.5790 N.3   188  HIS188     -0.1241
     66  CA        30.4630   14.3830   -7.7120 C.3   188  HIS188      0.1621
     67  C         31.6370   14.0090   -6.8010 C.2   188  HIS188      0.2264
     68  O         31.5860   13.0080   -6.0880 O.2   188  HIS188     -0.2867
     69  CB        29.2390   14.7860   -6.8860 C.3   188  HIS188      0.0745
     70  CG        29.2970   16.1850   -6.3570 C.ar  188  HIS188      0.0817
     71  ND1       30.0050   16.5270   -5.2260 N.ar  188  HIS188     -0.2268
     72  CD2       28.7390   17.3310   -6.8130 C.ar  188  HIS188      0.1154
     73  CE1       29.8790   17.8240   -5.0060 C.ar  188  HIS188      0.1986
     74  NE2       29.1160   18.3350   -5.9550 N.ar  188  HIS188     -0.2212
     75  N         32.7510   15.2240   -3.9730 N.3   190  THR190     -0.1218
     76  CA        32.5520   15.2140   -2.5290 C.3   190  THR190      0.1862
     77  C         31.2120   14.5910   -2.1470 C.2   190  THR190      0.2287
     78  O         30.6430   14.9170   -1.1110 O.2   190  THR190     -0.2866
     79  CB        32.6360   16.6450   -1.9460 C.3   190  THR190      0.1770
     80  OG1       31.7040   17.5000   -2.6200 O.3   190  THR190     -0.2211
     81  CG2       34.0400   17.2050   -2.1140 C.3   190  THR190      0.0375
     82  N         28.3150   12.6990   -0.6110 N.3   192  LYS192     -0.1245
     83  CA        28.1140   12.1430    0.7230 C.3   192  LYS192      0.1561
     84  C         27.3410   10.8280    0.6300 C.2   192  LYS192      0.2260
     85  O         26.4860   10.6640   -0.2370 O.2   192  LYS192     -0.2867
     86  CB        27.3270   13.1270    1.5970 C.3   192  LYS192      0.0271
     87  CG        28.0340   14.4520    1.8430 C.3   192  LYS192      0.0035
     88  CD        27.1390   15.4440    2.5970 C.3   192  LYS192      0.0206
     89  CE        25.9740   15.9430    1.7340 C.3   192  LYS192      0.1093
     90  NZ        26.4320   16.6440    0.4950 N.3   192  LYS192     -0.1314
     91  N         20.3240   23.4890   -0.3490 N.3   214  PHE214     -0.1227
     92  CA        20.6710   24.4970   -1.3610 C.3   214  PHE214      0.1736
     93  C         22.1280   24.4800   -1.8330 C.2   214  PHE214      0.2595
     94  O         22.5970   25.4130   -2.4910 O.2   214  PHE214     -0.2718
     95  CB        20.2430   25.9030   -0.8980 C.3   214  PHE214      0.0547
     96  CG        20.5430   26.2060    0.5450 C.ar  214  PHE214     -0.0202
     97  CD1       21.8280   26.5460    0.9470 C.ar  214  PHE214     -0.0042
     98  CD2       19.5300   26.1870    1.4970 C.ar  214  PHE214     -0.0042
     99  CE1       22.1030   26.8700    2.2770 C.ar  214  PHE214     -0.0003
    100  CE2       19.7940   26.5110    2.8390 C.ar  214  PHE214     -0.0003
    101  CZ        21.0820   26.8540    3.2260 C.ar  214  PHE214     -0.0000
    102  N         22.8330   23.4120   -1.4760 N.am  215  PHE215     -0.1976
    103  CA        24.2090   23.1280   -1.9140 C.3   215  PHE215      0.1639
    104  C         24.1410   21.6260   -2.2160 C.2   215  PHE215      0.2290
    105  O         24.9850   20.8410   -1.7920 O.2   215  PHE215     -0.2864
    106  CB        25.2420   23.3780   -0.7930 C.3   215  PHE215      0.0560
    107  CG        25.4060   24.8300   -0.3930 C.ar  215  PHE215     -0.0200
    108  CD1       25.7200   25.8050   -1.3310 C.ar  215  PHE215     -0.0042
    109  CD2       25.2610   25.2160    0.9380 C.ar  215  PHE215     -0.0042
    110  CE1       25.8850   27.1410   -0.9540 C.ar  215  PHE215     -0.0003
    111  CE2       25.4240   26.5560    1.3250 C.ar  215  PHE215     -0.0003
    112  CZ        25.7340   27.5170    0.3810 C.ar  215  PHE215     -0.0000
    113  N         24.8030   19.5160   -4.5040 N.3   217  GLY217     -0.1210
    114  CA        25.8760   18.6730   -5.0180 C.3   217  GLY217      0.1956
    115  C         25.4620   17.4850   -5.8770 C.2   217  GLY217      0.2612
    116  O         25.1150   17.6610   -7.0360 O.2   217  GLY217     -0.2717
    117  N         25.5050   16.2790   -5.3080 N.am  218  SER218     -0.1952
    118  CA        25.1520   15.0510   -6.0290 C.3   218  SER218      0.1924
    119  C         23.6500   14.7970   -6.0410 C.2   218  SER218      0.2314
    120  O         23.1610   13.9770   -6.8190 O.2   218  SER218     -0.2863
    121  CB        25.8400   13.8440   -5.3880 C.3   218  SER218      0.2116
    122  OG        25.2630   13.5510   -4.1210 O.3   218  SER218     -0.2180
    123  N         21.4050   23.6550   -6.6320 N.3   236  ASP236     -0.1225
    124  CA        22.8510   23.8180   -6.6480 C.3   236  ASP236      0.1805
    125  C         23.1780   24.8060   -7.7560 C.2   236  ASP236      0.2598
    126  O         22.4500   24.8780   -8.7350 O.2   236  ASP236     -0.2718
    127  CB        23.5460   22.4770   -6.9090 C.3   236  ASP236      0.1424
    128  CG        25.0310   22.5270   -6.6160 C.2   236  ASP236      0.3668
    129  OD1       25.7990   23.0470   -7.4570 O.co2 236  ASP236     -0.2456
    130  OD2       25.4270   22.0580   -5.5280 O.co2 236  ASP236     -0.2456
    131  N         24.2530   25.5680   -7.5960 N.am  237  ALA237     -0.1966
    132  CA        24.6250   26.5690   -8.5970 C.3   237  ALA237      0.1728
    133  C         25.2570   25.9700   -9.8510 C.2   237  ALA237      0.2616
    134  O         25.3050   26.6300  -10.8910 O.2   237  ALA237     -0.2715
    135  CB        25.5730   27.5890   -7.9800 C.3   237  ALA237      0.0334
    136  N         25.7350   24.7320   -9.7570 N.am  238  ALA238     -0.1977
    137  CA        26.3920   24.0720  -10.8830 C.3   238  ALA238      0.1597
    138  C         25.4080   23.3820  -11.8240 C.2   238  ALA238      0.2287
    139  O         24.6160   22.5490  -11.4030 O.2   238  ALA238     -0.2864
    140  CB        27.4040   23.0600  -10.3660 C.3   238  ALA238      0.0319
@<TRIPOS>BOND
     1   138   139    2
     2   138   137    1
     3   134   133    2
     4   137   140    1
     5   137   136    1
     6   133   136   am
     7   133   132    1
     8     1     2    1
     9     2     5    1
    10     2     3    1
    11     5     6    1
    12   126   125    2
    13   132   135    1
    14   132   131    1
    15    65    66    1
    16     3     7   am
    17     3     4    2
    18   125   131   am
    19   125   124    1
    20    66    69    1
    21    66    67    1
    22     7     8    1
    23   129   128   ar
    24   116   115    2
    25   127   124    1
    26   127   128    1
    27    69    70    1
    28   120   119    2
    29    72    70   ar
    30    72    74   ar
    31    67    68    2
    32   124   123    1
    33   128   130   ar
    34    49    48    1
    35    49    50    1
    36    11     8    1
    37    11    12    1
    38    70    71   ar
    39     8     9    1
    40    47    48    1
    41    47    44    1
    42   119   118    1
    43   118   121    1
    44   118   117    1
    45    74    73   ar
    46   115   117   am
    47   115   114    1
    48    45    44    1
    49    45    46    2
    50   121   122    1
    51    14    12   ar
    52    71    73   ar
    53    12    13   ar
    54    44    43    1
    55    10     9    2
    56     9    15   am
    57   114   113    1
    58    15    16    1
    59    75    76    1
    60    16    17    1
    61    16    19    1
    62    80    79    1
    63    76    77    1
    64    76    79    1
    65    94    93    2
    66    17    18    2
    67   104   103    1
    68   104   105    2
    69    77    78    2
    70    81    79    1
    71   103   102    1
    72   103   106    1
    73    93   102   am
    74    93    92    1
    75    19    20    1
    76    92    95    1
    77    92    91    1
    78   108   110   ar
    79   108   107   ar
    80    40    41    1
    81    40    37    1
    82   110   112   ar
    83    41    42    1
    84    95    96    1
    85    59    60   ar
    86    59    57   ar
    87   106   107    1
    88    62    60   ar
    89    62    64   ar
    90    82    83    1
    91    60    58   ar
    92   107   109   ar
    93    42    36    1
    94    85    84    2
    95    57    56   ar
    96    64    63   ar
    97    37    36    1
    98    37    38    1
    99   112   111   ar
   100    90    89    1
   101    36    31   am
   102    96    97   ar
   103    96    98   ar
   104    58    56   ar
   105    58    61   ar
   106    84    83    1
   107    56    55    1
   108    83    86    1
   109    63    61   ar
   110   109   111   ar
   111    97    99   ar
   112    24    23    2
   113    38    39    2
   114    28    26   ar
   115    98   100   ar
   116    31    30    1
   117    31    32    2
   118    86    87    1
   119    55    52    1
   120    89    88    1
   121    87    88    1
   122    30    29    1
   123    30    33    1
   124    23    29   am
   125    23    22    1
   126    26    25    1
   127    26    27   ar
   128    99   101   ar
   129    25    22    1
   130    52    53    1
   131    52    51    1
   132    29    35    1
   133   100   101   ar
   134    33    34    1
   135    54    53    2
   136    22    21    1
   137    35    34    1
