@<TRIPOS>MOLECULE
tmp/1eghD00.pdb
 110 107 0 0 0
SMALL
GASTEIGER

@<TRIPOS>ATOM
      1  N         95.6280  -44.3770   38.6080 N.3    17  VAL17      -0.1231
      2  CA        96.4550  -43.3440   39.2330 C.3    17  VAL17       0.1692
      3  C         97.0860  -43.8890   40.5030 C.2    17  VAL17       0.2592
      4  O         96.4220  -44.5520   41.2970 O.2    17  VAL17      -0.2718
      5  CB        95.6120  -42.1140   39.6170 C.3    17  VAL17       0.0266
      6  CG1       96.5280  -40.9800   40.0580 C.3    17  VAL17       0.0020
      7  CG2       94.7380  -41.6870   38.4490 C.3    17  VAL17       0.0020
      8  N         98.3660  -43.6060   40.7040 N.am   18  ALA18      -0.1966
      9  CA        99.0450  -44.0880   41.8930 C.3    18  ALA18       0.1728
     10  C        100.1090  -43.1180   42.3730 C.2    18  ALA18       0.2616
     11  O        100.8840  -42.5870   41.5740 O.2    18  ALA18      -0.2715
     12  CB        99.6790  -45.4440   41.6180 C.3    18  ALA18       0.0334
     13  N        100.1380  -42.8870   43.6840 N.am   19  HIS19      -0.1959
     14  CA       101.1380  -42.0060   44.2630 C.3    19  HIS19       0.1787
     15  C        102.4130  -42.8290   44.2680 C.2    19  HIS19       0.2620
     16  O        102.3620  -44.0530   44.2720 O.2    19  HIS19      -0.2715
     17  CB       100.7520  -41.5890   45.6830 C.3    19  HIS19       0.0785
     18  CG        99.7620  -40.4660   45.7300 C.ar   19  HIS19       0.0821
     19  ND1       99.0590  -40.1370   46.8700 N.ar   19  HIS19      -0.2267
     20  CD2       99.3460  -39.6040   44.7710 C.ar   19  HIS19       0.1154
     21  CE1       98.2520  -39.1230   46.6110 C.ar   19  HIS19       0.1986
     22  NE2       98.4070  -38.7800   45.3440 N.ar   19  HIS19      -0.2212
     23  N        103.5530  -42.1570   44.2680 N.am   20  ASP20      -0.1971
     24  CA       104.8340  -42.8360   44.2110 C.3    20  ASP20       0.1709
     25  C        105.0210  -44.0450   45.1230 C.2    20  ASP20       0.2293
     26  O        105.4590  -45.1010   44.6660 O.2    20  ASP20      -0.2864
     27  CB       105.9530  -41.8190   44.4270 C.3    20  ASP20       0.1436
     28  CG       106.0770  -40.8420   43.2620 C.2    20  ASP20       0.3671
     29  OD1      105.4430  -41.0800   42.2050 O.co2  20  ASP20      -0.2456
     30  OD2      106.8050  -39.8340   43.4020 O.co2  20  ASP20      -0.2456
     31  N        103.0330  -47.0450   43.7330 N.3    23  LYS23      -0.1245
     32  CA       103.1950  -47.4610   42.3450 C.3    23  LYS23       0.1561
     33  C        103.4820  -48.9510   42.1480 C.2    23  LYS23       0.2260
     34  O        102.9030  -49.5810   41.2590 O.2    23  LYS23      -0.2867
     35  CB       104.2850  -46.6190   41.6670 C.3    23  LYS23       0.0271
     36  CG       103.7380  -45.3430   41.0270 C.3    23  LYS23       0.0035
     37  CD       104.8330  -44.4790   40.4380 C.3    23  LYS23       0.0206
     38  CE       104.2430  -43.2580   39.7450 C.3    23  LYS23       0.1093
     39  NZ       103.4810  -42.3810   40.6850 N.3    23  LYS23      -0.1314
     40  N         97.7690  -41.2190   34.7510 N.3    45  THR45      -0.1203
     41  CA        98.4620  -39.9610   34.8660 C.3    45  THR45       0.1994
     42  C         99.8350  -40.2300   34.2800 C.2    45  THR45       0.2618
     43  O        100.2150  -41.3770   34.0860 O.2    45  THR45      -0.2717
     44  CB        98.5590  -39.5120   36.3220 C.3    45  THR45       0.1784
     45  OG1       98.8120  -40.6470   37.1570 O.3    45  THR45      -0.2211
     46  CG2       97.2440  -38.8570   36.7470 C.3    45  THR45       0.0376
     47  N        100.5610  -39.1640   33.9870 N.am   46  GLY46      -0.1942
     48  CA       101.8710  -39.2710   33.3720 C.3    46  GLY46       0.2014
     49  C        102.8450  -40.3780   33.7230 C.2    46  GLY46       0.2640
     50  O        103.1060  -41.2540   32.9000 O.2    46  GLY46      -0.2714
     51  N        103.4140  -40.3280   34.9230 N.am   47  THR47      -0.1936
     52  CA       104.3890  -41.3310   35.3240 C.3    47  THR47       0.2028
     53  C        103.7920  -42.7340   35.4110 C.2    47  THR47       0.2642
     54  O        104.3420  -43.6900   34.8570 O.2    47  THR47      -0.2714
     55  CB       105.0240  -40.9600   36.6670 C.3    47  THR47       0.1808
     56  OG1      105.0870  -39.5320   36.7850 O.3    47  THR47      -0.2208
     57  CG2      106.4220  -41.5290   36.7570 C.3    47  THR47       0.0379
     58  N        102.6620  -42.8520   36.1030 N.am   48  THR48      -0.1950
     59  CA       101.9900  -44.1350   36.2540 C.3    48  THR48       0.1897
     60  C        101.7550  -44.7970   34.8960 C.2    48  THR48       0.2313
     61  O        102.1520  -45.9390   34.6850 O.2    48  THR48      -0.2863
     62  CB       100.6340  -43.9660   36.9750 C.3    48  THR48       0.1794
     63  OG1      100.8630  -43.5550   38.3270 O.3    48  THR48      -0.2208
     64  CG2       99.8620  -45.2730   36.9890 C.3    48  THR48       0.0378
     65  N        101.4360  -35.5540   34.5440 N.3    65  SER65      -0.1202
     66  CA       101.7550  -36.0600   35.8690 C.3    65  SER65       0.2020
     67  C        100.7420  -35.4040   36.8060 C.2    65  SER65       0.2619
     68  O        100.2790  -34.2910   36.5430 O.2    65  SER65      -0.2717
     69  CB       103.1720  -35.6420   36.2450 C.3    65  SER65       0.2103
     70  OG       103.5650  -36.2290   37.4650 O.3    65  SER65      -0.2182
     71  N        100.3920  -36.0830   37.8910 N.am   66  GLY66      -0.1942
     72  CA        99.4130  -35.5410   38.8210 C.3    66  GLY66       0.1998
     73  C         99.6720  -34.1280   39.3170 C.2    66  GLY66       0.2480
     74  O         98.7900  -33.2680   39.2290 O.2    66  GLY66      -0.2729
     75  N        100.8660  -33.8570   39.8630 N.am   67  PRO67      -0.2726
     76  CA       101.2090  -32.5240   40.3690 C.3    67  PRO67       0.1402
     77  C        101.1410  -31.4220   39.3140 C.2    67  PRO67       0.2269
     78  O        100.9400  -30.2600   39.6500 O.2    67  PRO67      -0.2865
     79  CB       102.6300  -32.6890   40.8980 C.3    67  PRO67       0.0296
     80  CG       102.8010  -34.1530   41.1020 C.3    67  PRO67       0.0237
     81  CD       101.9690  -34.8150   40.0550 C.3    67  PRO67       0.0939
     82  N         95.6580  -34.9440   37.6520 N.3    71  ASP71      -0.1239
     83  CA        94.5080  -35.3380   38.4500 C.3    71  ASP71       0.1674
     84  C         93.2750  -34.5900   38.0070 C.2    71  ASP71       0.2266
     85  O         92.1620  -35.1270   38.0310 O.2    71  ASP71      -0.2867
     86  CB        94.7530  -35.0670   39.9380 C.3    71  ASP71       0.1410
     87  CG        95.8400  -35.9520   40.5300 C.2    71  ASP71       0.3668
     88  OD1       96.4570  -35.5410   41.5250 O.co2  71  ASP71      -0.2456
     89  OD2       96.0870  -37.0550   40.0110 O.co2  71  ASP71      -0.2456
     90  N         92.4870  -45.4250   42.1070 N.3    88  PHE88      -0.1241
     91  CA        93.3820  -44.3950   42.6230 C.3    88  PHE88       0.1605
     92  C         94.0710  -44.8380   43.9090 C.2    88  PHE88       0.2264
     93  O         93.4830  -44.7740   44.9820 O.2    88  PHE88      -0.2867
     94  CB        92.5620  -43.1230   42.8740 C.3    88  PHE88       0.0534
     95  CG        93.3880  -41.8890   43.1510 C.ar   88  PHE88      -0.0203
     96  CD1       92.7630  -40.7040   43.5320 C.ar   88  PHE88      -0.0042
     97  CD2       94.7720  -41.9040   43.0340 C.ar   88  PHE88      -0.0042
     98  CE1       93.5040  -39.5490   43.7940 C.ar   88  PHE88      -0.0003
     99  CE2       95.5240  -40.7550   43.2940 C.ar   88  PHE88      -0.0003
    100  CZ        94.8860  -39.5740   43.6750 C.ar   88  PHE88      -0.0000
    101  N        100.0980  -31.7440   46.2850 N.3    98  HIS98      -0.1241
    102  CA        98.8600  -31.5620   45.5470 C.3    98  HIS98       0.1621
    103  C         97.6820  -32.2520   46.2090 C.2    98  HIS98       0.2264
    104  O         96.8020  -32.7790   45.5350 O.2    98  HIS98      -0.2867
    105  CB        99.0130  -32.0420   44.1000 C.3    98  HIS98       0.0745
    106  CG        99.4690  -33.4620   43.9670 C.ar   98  HIS98       0.0817
    107  ND1      100.5960  -33.9480   44.5960 N.ar   98  HIS98      -0.2268
    108  CD2       98.9610  -34.4970   43.2540 C.ar   98  HIS98       0.1154
    109  CE1      100.7630  -35.2200   44.2750 C.ar   98  HIS98       0.1986
    110  NE2       99.7850  -35.5780   43.4630 N.ar   98  HIS98      -0.2212
@<TRIPOS>BOND
     1    50    49    2
     2    48    49    1
     3    48    47    1
     4    49    51   am
     5    47    42   am
     6    43    42    2
     7    42    41    1
     8    65    66    1
     9    61    60    2
    10    40    41    1
    11    54    53    2
    12    41    44    1
    13    60    59    1
    14    51    52    1
    15    52    53    1
    16    52    55    1
    17    53    58   am
    18    66    69    1
    19    66    67    1
    20    58    59    1
    21    69    70    1
    22    59    62    1
    23    44    46    1
    24    44    45    1
    25    68    67    2
    26    55    57    1
    27    55    56    1
    28    67    71   am
    29    62    64    1
    30    62    63    1
    31    82    83    1
    32    71    72    1
    33    84    85    2
    34    84    83    1
    35     7     5    1
    36    83    86    1
    37     1     2    1
    38    72    73    1
    39    74    73    2
    40     2     5    1
    41     2     3    1
    42    77    78    2
    43    77    76    1
    44    73    75   am
    45     5     6    1
    46    38    37    1
    47    38    39    1
    48    75    81    1
    49    75    76    1
    50    86    87    1
    51    89    87   ar
    52    81    80    1
    53    76    79    1
    54    37    36    1
    55     3     8   am
    56     3     4    2
    57    87    88   ar
    58     8     9    1
    59    79    80    1
    60    36    35    1
    61    34    33    2
    62    11    10    2
    63    12     9    1
    64    35    32    1
    65     9    10    1
    66    90    91    1
    67    33    32    1
    68    29    28   ar
    69    32    31    1
    70    10    13   am
    71    91    94    1
    72    91    92    1
    73    94    95    1
    74    97    95   ar
    75    97    99   ar
    76    95    96   ar
    77   108   110   ar
    78   108   106   ar
    79    28    30   ar
    80    28    27    1
    81    99   100   ar
    82   110   109   ar
    83    96    98   ar
    84   100    98   ar
    85    13    14    1
    86    92    93    2
    87   106   105    1
    88   106   107   ar
    89   105   102    1
    90    24    23    1
    91    24    27    1
    92    24    25    1
    93    14    15    1
    94    14    17    1
    95    23    15   am
    96    15    16    2
    97   109   107   ar
    98    26    25    2
    99    20    22   ar
   100    20    18   ar
   101    22    21   ar
   102   104   103    2
   103   102   103    1
   104   102   101    1
   105    17    18    1
   106    18    19   ar
   107    21    19   ar
