@<TRIPOS>MOLECULE
tmp/1egvE00.pdb
 205 197 0 0 0
SMALL
GASTEIGER

@<TRIPOS>ATOM
      1  N         55.5600  -18.1080  206.6230 N.3    34  ILE34      -0.1245
      2  CA        55.9760  -17.3350  205.4510 C.3    34  ILE34       0.1561
      3  C         56.3430  -18.2160  204.2750 C.2    34  ILE34       0.2260
      4  O         56.2070  -17.8000  203.1170 O.2    34  ILE34      -0.2867
      5  CB        57.1480  -16.4120  205.8500 C.3    34  ILE34       0.0252
      6  CG1       57.5350  -15.3960  204.7710 C.3    34  ILE34       0.0019
      7  CG2       58.3420  -17.2410  206.2920 C.3    34  ILE34       0.0019
      8  CD1       58.1310  -14.1170  205.3210 C.3    34  ILE34       0.0001
      9  N         54.0630   -8.1980  218.2870 N.3    67  ASP67      -0.1225
     10  CA        55.5130   -8.3260  218.3520 C.3    67  ASP67       0.1805
     11  C         55.9050   -9.6340  219.0350 C.2    67  ASP67       0.2598
     12  O         55.4250   -9.9320  220.1330 O.2    67  ASP67      -0.2718
     13  CB        56.0480   -7.1060  219.0890 C.3    67  ASP67       0.1424
     14  CG        57.5560   -6.9830  219.0010 C.2    67  ASP67       0.3668
     15  OD1       58.0350   -6.1640  218.1890 O.co2  67  ASP67      -0.2456
     16  OD2       58.2260   -7.7120  219.7650 O.co2  67  ASP67      -0.2456
     17  N         56.7600  -10.4150  218.3820 N.am   68  VAL68      -0.1966
     18  CA        57.1160  -11.7580  218.8380 C.3    68  VAL68       0.1727
     19  C         57.7420  -11.6980  220.2230 C.2    68  VAL68       0.2616
     20  O         57.5060  -12.6020  221.0300 O.2    68  VAL68      -0.2715
     21  CB        58.0300  -12.4820  217.8300 C.3    68  VAL68       0.0290
     22  CG1       59.5020  -12.1780  218.0610 C.3    68  VAL68       0.0023
     23  CG2       57.8120  -13.9950  217.8670 C.3    68  VAL68       0.0023
     24  N         58.5210  -10.6670  220.5410 N.am   69  ALA69      -0.1963
     25  CA        59.1550  -10.5990  221.8590 C.3    69  ALA69       0.1728
     26  C         58.1100  -10.3830  222.9480 C.2    69  ALA69       0.2616
     27  O         58.0570  -11.0700  223.9650 O.2    69  ALA69      -0.2715
     28  CB        60.1950   -9.4950  221.9490 C.3    69  ALA69       0.0334
     29  N         57.2630   -9.3810  222.7100 N.am   70  PHE70      -0.1974
     30  CA        56.2460   -9.1130  223.7280 C.3    70  PHE70       0.1639
     31  C         55.3420  -10.3170  223.8760 C.2    70  PHE70       0.2290
     32  O         54.9380  -10.6860  224.9890 O.2    70  PHE70      -0.2864
     33  CB        55.5300   -7.8110  223.3470 C.3    70  PHE70       0.0560
     34  CG        56.4210   -6.6240  223.7340 C.ar   70  PHE70      -0.0200
     35  CD1       56.4900   -6.1950  225.0460 C.ar   70  PHE70      -0.0042
     36  CD2       57.1800   -5.9700  222.7820 C.ar   70  PHE70      -0.0042
     37  CE1       57.3100   -5.1390  225.4030 C.ar   70  PHE70      -0.0003
     38  CE2       57.9930   -4.9100  223.1280 C.ar   70  PHE70      -0.0003
     39  CZ        58.0580   -4.4850  224.4430 C.ar   70  PHE70      -0.0000
     40  N         55.1580  -16.0550  215.7980 N.3    88  GLN88      -0.1245
     41  CA        54.2940  -15.2970  214.9030 C.3    88  GLN88       0.1566
     42  C         53.7040  -16.1630  213.7940 C.2    88  GLN88       0.2260
     43  O         54.2690  -17.1960  213.4230 O.2    88  GLN88      -0.2867
     44  CB        55.0610  -14.1230  214.2640 C.3    88  GLN88       0.0367
     45  CG        55.5140  -13.0690  215.2730 C.3    88  GLN88       0.0905
     46  CD        56.2150  -11.9120  214.5760 C.2    88  GLN88       0.2608
     47  OE1       57.0560  -12.1570  213.7190 O.2    88  GLN88      -0.2717
     48  NE2       55.8610  -10.6880  214.9440 N.am   88  GLN88      -0.0878
     49  N         53.6610  -15.5770  210.6560 N.3    90  LYS90      -0.1245
     50  CA        54.6290  -15.7520  209.5700 C.3    90  LYS90       0.1561
     51  C         55.7240  -16.7250  209.9810 C.2    90  LYS90       0.2260
     52  O         56.4170  -17.2580  209.1090 O.2    90  LYS90      -0.2867
     53  CB        55.2230  -14.4270  209.1170 C.3    90  LYS90       0.0271
     54  CG        55.9340  -13.5480  210.1280 C.3    90  LYS90       0.0035
     55  CD        56.1750  -12.1670  209.4940 C.3    90  LYS90       0.0206
     56  CE        56.5360  -11.1290  210.5430 C.3    90  LYS90       0.1093
     57  NZ        57.8450  -11.4610  211.1820 N.3    90  LYS90      -0.1314
     58  N         58.2620  -16.3980  212.6040 N.3    92  THR92      -0.1218
     59  CA        59.3740  -15.9420  213.4370 C.3    92  THR92       0.1862
     60  C         59.2380  -16.4800  214.8560 C.2    92  THR92       0.2287
     61  O         58.1250  -16.5010  215.3860 O.2    92  THR92      -0.2866
     62  CB        59.4300  -14.4030  213.4500 C.3    92  THR92       0.1770
     63  OG1       59.4400  -13.9360  212.0950 O.3    92  THR92      -0.2211
     64  CG2       60.7110  -13.9180  214.1130 C.3    92  THR92       0.0375
     65  N         60.8550  -17.1020  219.0460 N.3    94  VAL94      -0.1245
     66  CA        61.7890  -16.7350  220.0930 C.3    94  VAL94       0.1561
     67  C         61.5720  -17.5370  221.3780 C.2    94  VAL94       0.2260
     68  O         60.4510  -17.7390  221.8420 O.2    94  VAL94      -0.2867
     69  CB        61.6520  -15.2370  220.4390 C.3    94  VAL94       0.0252
     70  CG1       60.3380  -15.0220  221.1760 C.3    94  VAL94       0.0019
     71  CG2       62.8370  -14.7490  221.2560 C.3    94  VAL94       0.0019
     72  N         62.2780   -7.4780  227.4460 N.3   102  PRO102     -0.2102
     73  CA        61.5850   -8.0420  226.2860 C.3   102  PRO102      0.1504
     74  C         62.4850   -8.1260  225.0610 C.2   102  PRO102      0.2576
     75  O         62.2570   -9.0180  224.2400 O.2   102  PRO102     -0.2718
     76  CB        60.4410   -7.0560  226.0260 C.3   102  PRO102      0.0282
     77  CG        60.2270   -6.3770  227.3410 C.3   102  PRO102      0.0208
     78  CD        61.5920   -6.2880  227.9750 C.3   102  PRO102      0.0893
     79  N         63.4900   -7.2510  224.8950 N.am  103  LEU103     -0.1966
     80  CA        64.2090   -7.3800  223.6150 C.3   103  LEU103      0.1728
     81  C         65.5160   -8.1370  223.8010 C.2   103  LEU103      0.2617
     82  O         66.4090   -8.0930  222.9580 O.2   103  LEU103     -0.2715
     83  CB        64.4060   -6.0110  222.9530 C.3   103  LEU103      0.0311
     84  CG        63.1150   -5.2030  222.7550 C.3   103  LEU103      0.0022
     85  CD1       63.4100   -3.8270  222.1710 C.3   103  LEU103      0.0001
     86  CD2       62.1140   -5.9440  221.8770 C.3   103  LEU103      0.0001
     87  N         65.5800   -8.8450  224.9210 N.am  104  SER104     -0.1936
     88  CA        66.5720   -9.8690  225.1810 C.3   104  SER104      0.2055
     89  C         65.9020  -11.2380  225.1240 C.2   104  SER104      0.2643
     90  O         64.6730  -11.3310  225.1420 O.2   104  SER104     -0.2714
     91  CB        67.2410   -9.6630  226.5390 C.3   104  SER104      0.2130
     92  OG        68.2200   -8.6440  226.4000 O.3   104  SER104     -0.2179
     93  N         66.6740  -12.3150  225.0400 N.am  105  ASN105     -0.1971
     94  CA        66.0230  -13.6270  224.9600 C.3   105  ASN105      0.1688
     95  C         67.0460  -14.7390  225.1290 C.2   105  ASN105      0.2292
     96  O         68.2460  -14.4820  225.2530 O.2   105  ASN105     -0.2864
     97  CB        65.2870  -13.8040  223.6280 C.3   105  ASN105      0.1181
     98  CG        66.1240  -13.4340  222.4210 C.2   105  ASN105      0.2629
     99  OD1       65.7590  -12.5200  221.6750 O.2   105  ASN105     -0.2716
    100  ND2       67.2390  -14.1220  222.2000 N.am  105  ASN105     -0.0877
    101  N         66.8820  -16.5860  219.4990 N.3   108  LEU108     -0.1245
    102  CA        66.0980  -15.8860  218.4900 C.3   108  LEU108      0.1561
    103  C         66.1860  -16.5960  217.1400 C.2   108  LEU108      0.2260
    104  O         67.2430  -17.1000  216.7600 O.2   108  LEU108     -0.2867
    105  CB        66.5880  -14.4400  218.3590 C.3   108  LEU108      0.0270
    106  CG        65.7910  -13.4920  217.4720 C.3   108  LEU108      0.0019
    107  CD1       64.3110  -13.5470  217.8270 C.3   108  LEU108      0.0001
    108  CD2       66.3070  -12.0590  217.5750 C.3   108  LEU108      0.0001
    109  N         65.3110  -15.1630  213.7510 N.3   110  PRO110     -0.2102
    110  CA        64.9020  -13.9020  213.1310 C.3   110  PRO110      0.1504
    111  C         64.8370  -13.9340  211.6130 C.2   110  PRO110      0.2576
    112  O         64.6630  -12.9070  210.9520 O.2   110  PRO110     -0.2718
    113  CB        66.0420  -12.9670  213.5910 C.3   110  PRO110      0.0282
    114  CG        67.2450  -13.8580  213.4180 C.3   110  PRO110      0.0208
    115  CD        66.7850  -15.2000  213.9440 C.3   110  PRO110      0.0893
    116  N         64.9580  -15.1260  211.0410 N.am  111  GLN111     -0.1966
    117  CA        64.7080  -15.3210  209.6220 C.3   111  GLN111      0.1733
    118  C         63.7740  -16.5160  209.4310 C.2   111  GLN111      0.2616
    119  O         64.2180  -17.6210  209.1240 O.2   111  GLN111     -0.2715
    120  CB        66.0090  -15.5010  208.8470 C.3   111  GLN111      0.0408
    121  CG        66.8610  -14.2350  208.7460 C.3   111  GLN111      0.0908
    122  CD        68.2530  -14.5150  208.2110 C.2   111  GLN111      0.2608
    123  OE1       68.4810  -15.3840  207.3640 O.2   111  GLN111     -0.2717
    124  NE2       69.2360  -13.7720  208.7160 N.am  111  GLN111     -0.0878
    125  N         62.4670  -16.3000  209.5990 N.am  112  ALA112     -0.1964
    126  CA        61.5010  -17.3870  209.5170 C.3   112  ALA112      0.1713
    127  C         61.6300  -18.1970  208.2340 C.2   112  ALA112      0.2458
    128  O         61.5060  -19.4320  208.3350 O.2   112  ALA112     -0.2730
    129  CB        60.0790  -16.8590  209.6720 C.3   112  ALA112      0.0333
    130  N         61.8500  -17.6560  207.0420 N.am  113  PRO113     -0.2727
    131  CA        61.8830  -18.5390  205.8630 C.3   113  PRO113      0.1402
    132  C         62.9120  -19.6620  205.9260 C.2   113  PRO113      0.2269
    133  O         62.7880  -20.5380  205.0690 O.2   113  PRO113     -0.2865
    134  CB        62.3020  -17.6050  204.7060 C.3   113  PRO113      0.0296
    135  CG        61.7610  -16.2780  205.1500 C.3   113  PRO113      0.0237
    136  CD        62.0570  -16.2560  206.6330 C.3   113  PRO113      0.0939
    137  N         70.9040  -20.0810  211.8160 N.3   142  LEU142     -0.1231
    138  CA        70.5170  -20.0600  210.4060 C.3   142  LEU142      0.1693
    139  C         70.5890  -18.6420  209.8490 C.2   142  LEU142      0.2592
    140  O         70.1380  -17.6560  210.4390 O.2   142  LEU142     -0.2718
    141  CB        69.1220  -20.6550  210.2520 C.3   142  LEU142      0.0284
    142  CG        69.0210  -22.1470  210.5830 C.3   142  LEU142      0.0019
    143  CD1       67.5660  -22.5800  210.6290 C.3   142  LEU142      0.0001
    144  CD2       69.7980  -22.9700  209.5650 C.3   142  LEU142      0.0001
    145  N         71.1970  -18.4960  208.6710 N.am  143  ASN143     -0.1974
    146  CA        71.3430  -17.1510  208.1290 C.3   143  ASN143      0.1688
    147  C         71.4630  -17.2010  206.6150 C.2   143  ASN143      0.2292
    148  O         72.1220  -18.1020  206.0910 O.2   143  ASN143     -0.2864
    149  CB        72.5710  -16.4510  208.7060 C.3   143  ASN143      0.1181
    150  CG        72.7300  -15.0730  208.0840 C.2   143  ASN143      0.2629
    151  OD1       71.9140  -14.1780  208.3200 O.2   143  ASN143     -0.2716
    152  ND2       73.7890  -14.9520  207.2950 N.am  143  ASN143     -0.0877
    153  N         67.6360  -13.7030  202.3100 N.3   147  ALA147     -0.1231
    154  CA        66.3260  -13.9100  202.9310 C.3   147  ALA147      0.1694
    155  C         65.4590  -12.6650  202.9300 C.2   147  ALA147      0.2591
    156  O         64.2850  -12.6450  202.5630 O.2   147  ALA147     -0.2718
    157  CB        66.5950  -14.4010  204.3620 C.3   147  ALA147      0.0304
    158  N         66.0440  -11.5430  203.3600 N.am  148  ARG148     -0.1980
    159  CA        65.3420  -10.2600  203.3170 C.3   148  ARG148      0.1597
    160  C         65.0130   -9.8880  201.8730 C.2   148  ARG148      0.2287
    161  O         63.8320   -9.5870  201.6460 O.2   148  ARG148     -0.2864
    162  CB        66.1630   -9.1750  204.0280 C.3   148  ARG148      0.0334
    163  CG        65.9650   -7.7430  203.5840 C.3   148  ARG148      0.0492
    164  CD        66.7200   -6.7240  204.4380 C.3   148  ARG148      0.2205
    165  NE        68.1330   -7.0420  204.5380 N.pl3 148  ARG148     -0.0865
    166  CZ        68.9320   -6.8920  205.5780 C.cat 148  ARG148      0.5346
    167  NH1       68.4840   -6.3850  206.7170 N.pl3 148  ARG148      0.1354
    168  NH2       70.2110   -7.2540  205.4780 N.pl3 148  ARG148      0.1354
    169  N         62.0760  -12.1610  201.0040 N.3   151  TYR151     -0.1227
    170  CA        60.8860  -12.2860  201.8460 C.3   151  TYR151      0.1736
    171  C         60.5720  -11.1120  202.7460 C.2   151  TYR151      0.2595
    172  O         59.5480  -11.1450  203.4490 O.2   151  TYR151     -0.2718
    173  CB        61.0280  -13.5240  202.7650 C.3   151  TYR151      0.0548
    174  CG        61.0210  -14.8220  201.9950 C.ar  151  TYR151     -0.0200
    175  CD1       59.8600  -15.3280  201.4240 C.ar  151  TYR151     -0.0009
    176  CD2       62.2090  -15.5310  201.8460 C.ar  151  TYR151     -0.0009
    177  CE1       59.8820  -16.5230  200.7200 C.ar  151  TYR151      0.0417
    178  CE2       62.2410  -16.7240  201.1450 C.ar  151  TYR151      0.0417
    179  CZ        61.0730  -17.2080  200.5870 C.ar  151  TYR151      0.1957
    180  OH        61.1220  -18.3970  199.8910 O.3   151  TYR151     -0.2866
    181  N         61.3810  -10.0560  202.8120 N.am  152  GLN152     -0.1979
    182  CA        61.0330   -9.0780  203.8540 C.3   152  GLN152      0.1601
    183  C         59.7430   -8.3570  203.5190 C.2   152  GLN152      0.2287
    184  O         58.9170   -8.0630  204.3980 O.2   152  GLN152     -0.2864
    185  CB        62.1830   -8.1010  204.0630 C.3   152  GLN152      0.0394
    186  CG        61.8260   -6.9850  205.0410 C.3   152  GLN152      0.0908
    187  CD        63.0560   -6.1300  205.2970 C.2   152  GLN152      0.2608
    188  OE1       63.5040   -5.4220  204.4040 O.2   152  GLN152     -0.2717
    189  NE2       63.6130   -6.2200  206.5000 N.am  152  GLN152     -0.0878
    190  N         57.0270  -10.6270  204.5290 N.3   155  SER155     -0.1217
    191  CA        57.0170  -10.6620  205.9880 C.3   155  SER155      0.1889
    192  C         56.1980   -9.4750  206.4970 C.2   155  SER155      0.2288
    193  O         55.3520   -9.6070  207.3780 O.2   155  SER155     -0.2866
    194  CB        58.4300  -10.6480  206.5510 C.3   155  SER155      0.2089
    195  OG        58.4760  -10.1420  207.8730 O.3   155  SER155     -0.2183
    196  N         52.7640   -9.4420  208.6150 N.3   159  HIS159     -0.1241
    197  CA        52.7550   -8.8750  209.9580 C.3   159  HIS159      0.1621
    198  C         51.6720   -7.8050  210.0740 C.2   159  HIS159      0.2264
    199  O         51.0290   -7.6920  211.1160 O.2   159  HIS159     -0.2867
    200  CB        54.1110   -8.2840  210.3450 C.3   159  HIS159      0.0745
    201  CG        54.0930   -7.8130  211.7730 C.ar  159  HIS159      0.0817
    202  ND1       54.0620   -8.6880  212.8390 N.ar  159  HIS159     -0.2268
    203  CD2       54.0960   -6.5760  212.3010 C.ar  159  HIS159      0.1154
    204  CE1       54.0490   -7.9960  213.9670 C.ar  159  HIS159      0.1986
    205  NE2       54.0740   -6.7030  213.6700 N.ar  159  HIS159     -0.2212
@<TRIPOS>BOND
     1   180   179    1
     2   179   177   ar
     3   179   178   ar
     4   177   175   ar
     5   169   170    1
     6   178   176   ar
     7   175   174   ar
     8   161   160    2
     9   176   174   ar
    10   170   171    1
    11   170   173    1
    12   160   159    1
    13   174   173    1
    14   153   154    1
    15   156   155    2
    16   171   181   am
    17   171   172    2
    18   181   182    1
    19   155   154    1
    20   155   158   am
    21   154   157    1
    22     4     3    2
    23   159   158    1
    24   159   162    1
    25   183   182    1
    26   183   184    2
    27   163   162    1
    28   163   164    1
    29   182   185    1
    30   185   186    1
    31     3     2    1
    32   188   187    2
    33   164   165    1
    34   190   191    1
    35   165   166    2
    36   134   135    1
    37   134   131    1
    38     6     8    1
    39     6     5    1
    40   186   187    1
    41   133   132    2
    42   135   136    1
    43   187   189   am
    44     2     5    1
    45     2     1    1
    46   168   166    1
    47   166   167    1
    48     5     7    1
    49   131   132    1
    50   131   130    1
    51   191   192    1
    52   191   194    1
    53   148   147    2
    54   192   193    2
    55   194   195    1
    56   147   146    1
    57   136   130    1
    58   130   127   am
    59   152   150   am
    60   123   122    2
    61   150   151    2
    62   150   149    1
    63   146   145    1
    64   146   149    1
    65   122   124   am
    66   122   121    1
    67   127   128    2
    68   127   126    1
    69   196   197    1
    70   145   139   am
    71   121   120    1
    72   120   117    1
    73    52    51    2
    74    53    50    1
    75    53    54    1
    76   119   118    2
    77   118   125   am
    78   118   117    1
    79    55    54    1
    80    55    56    1
    81   126   125    1
    82   126   129    1
    83   144   142    1
    84    50    51    1
    85    50    49    1
    86   117   116    1
    87   139   138    1
    88   139   140    2
    89   197   198    1
    90   197   200    1
    91   198   199    2
    92   141   138    1
    93   141   142    1
    94   200   201    1
    95   138   137    1
    96    56    57    1
    97   142   143    1
    98   112   111    2
    99   116   111   am
   100   111   110    1
   101   201   203   ar
   102   201   202   ar
   103    63    62    1
   104   203   205   ar
   105    58    59    1
   106   202   204   ar
   107   110   113    1
   108   110   109    1
   109   114   113    1
   110   114   115    1
   111    43    42    2
   112    59    62    1
   113    59    60    1
   114    62    64    1
   115   205   204   ar
   116    47    46    2
   117   109   115    1
   118    42    41    1
   119    44    41    1
   120    44    45    1
   121    46    48   am
   122    46    45    1
   123    60    61    2
   124    41    40    1
   125   104   103    2
   126   103   102    1
   127   106   108    1
   128   106   107    1
   129   106   105    1
   130    21    23    1
   131    21    22    1
   132    21    18    1
   133    15    14   ar
   134     9    10    1
   135    10    11    1
   136    10    13    1
   137   105   102    1
   138    17    18    1
   139    17    11   am
   140   102   101    1
   141    18    19    1
   142    14    13    1
   143    14    16   ar
   144    11    12    2
   145    65    66    1
   146    66    69    1
   147    66    67    1
   148    19    24   am
   149    19    20    2
   150    69    70    1
   151    69    71    1
   152    24    25    1
   153    67    68    2
   154    99    98    2
   155    25    28    1
   156    25    26    1
   157    86    84    1
   158    85    84    1
   159   100    98   am
   160    98    97    1
   161    29    26   am
   162    29    30    1
   163    84    83    1
   164    36    38   ar
   165    36    34   ar
   166    26    27    2
   167    83    80    1
   168    82    81    2
   169    38    39   ar
   170    33    30    1
   171    33    34    1
   172    80    81    1
   173    80    79    1
   174    97    94    1
   175    30    31    1
   176    34    35   ar
   177    81    87   am
   178    31    32    2
   179    75    74    2
   180    39    37   ar
   181    79    74   am
   182    87    88    1
   183    94    93    1
   184    94    95    1
   185    93    89   am
   186    35    37   ar
   187    74    73    1
   188    89    90    2
   189    89    88    1
   190    95    96    2
   191    88    91    1
   192    76    73    1
   193    76    77    1
   194    73    72    1
   195    92    91    1
   196    77    78    1
   197    72    78    1
