@<TRIPOS>MOLECULE
tmp/1egvA00.pdb
 177 165 0 0 0
SMALL
GASTEIGER

@<TRIPOS>ATOM
      1  N         73.5430   -3.5420  161.6300 N.3   172  THR172     -0.1203
      2  CA        74.8290   -3.6090  160.9410 C.3   172  THR172      0.1994
      3  C         75.0100   -5.0750  160.5730 C.2   172  THR172      0.2618
      4  O         74.0870   -5.8710  160.8110 O.2   172  THR172     -0.2717
      5  CB        76.0030   -3.0640  161.7670 C.3   172  THR172      0.1784
      6  OG1       77.1350   -2.8950  160.8890 O.3   172  THR172     -0.2211
      7  CG2       76.4250   -4.0210  162.8650 C.3   172  THR172      0.0376
      8  N         76.1420   -5.4210  159.9820 N.am  173  VAL173     -0.1965
      9  CA        76.2200   -6.7070  159.3150 C.3   173  VAL173      0.1727
     10  C         77.3200   -7.5610  159.9350 C.2   173  VAL173      0.2616
     11  O         78.2950   -6.9720  160.3880 O.2   173  VAL173     -0.2715
     12  CB        76.5250   -6.5460  157.8110 C.3   173  VAL173      0.0290
     13  CG1       75.2700   -6.2770  157.0050 C.3   173  VAL173      0.0023
     14  CG2       77.5160   -5.4180  157.5960 C.3   173  VAL173      0.0023
     15  N         77.1160   -8.8680  159.9130 N.am  174  ALA174     -0.1977
     16  CA        78.1810   -9.8290  160.1550 C.3   174  ALA174      0.1597
     17  C         78.9410  -10.0130  158.8370 C.2   174  ALA174      0.2287
     18  O         80.1670  -10.0240  158.7930 O.2   174  ALA174     -0.2864
     19  CB        77.6090  -11.1420  160.6460 C.3   174  ALA174      0.0319
     20  N         78.9940   -8.2040  155.1620 N.3   176  ALA176     -0.1245
     21  CA        78.6590   -6.8730  154.6690 C.3   176  ALA176      0.1562
     22  C         77.6870   -6.9010  153.4950 C.2   176  ALA176      0.2260
     23  O         76.8410   -6.0070  153.3610 O.2   176  ALA176     -0.2867
     24  CB        79.9250   -6.0960  154.3030 C.3   176  ALA176      0.0290
     25  N         74.4690    0.7410  159.4920 N.3   202  SER202     -0.1202
     26  CA        75.7910    1.3410  159.6460 C.3   202  SER202      0.2020
     27  C         76.8430    0.5910  158.8450 C.2   202  SER202      0.2619
     28  O         77.0970   -0.5810  159.1290 O.2   202  SER202     -0.2717
     29  CB        76.1360    1.3530  161.1340 C.3   202  SER202      0.2103
     30  OG        75.1360    2.0870  161.8410 O.3   202  SER202     -0.2182
     31  N         77.4300    1.2660  157.8650 N.am  203  LEU203     -0.1965
     32  CA        78.3050    0.6180  156.8950 C.3   203  LEU203      0.1728
     33  C         79.4750    1.5370  156.5570 C.2   203  LEU203      0.2616
     34  O         79.6090    2.5820  157.1890 O.2   203  LEU203     -0.2715
     35  CB        77.5540    0.2720  155.6020 C.3   203  LEU203      0.0311
     36  CG        76.2920   -0.5890  155.7280 C.3   203  LEU203      0.0022
     37  CD1       75.4840   -0.6070  154.4410 C.3   203  LEU203      0.0001
     38  CD2       76.6810   -2.0060  156.1540 C.3   203  LEU203      0.0001
     39  N         80.2770    1.1450  155.5710 N.am  204  GLU204     -0.1963
     40  CA        81.2410    2.0670  154.9620 C.3   204  GLU204      0.1733
     41  C         80.4790    3.2870  154.4410 C.2   204  GLU204      0.2616
     42  O         79.3680    3.1510  153.9270 O.2   204  GLU204     -0.2715
     43  CB        82.0050    1.3500  153.8470 C.3   204  GLU204      0.0429
     44  CG        83.1520    2.1290  153.2200 C.3   204  GLU204      0.1163
     45  CD        82.7250    3.0600  152.0990 C.2   204  GLU204      0.3649
     46  OE1       81.7390    2.7140  151.4100 O.co2 204  GLU204     -0.2457
     47  OE2       83.3130    4.1440  151.9750 O.co2 204  GLU204     -0.2457
     48  N         81.1100    4.4720  154.4980 N.am  205  GLU205     -0.1977
     49  CA        80.4140    5.7230  154.2140 C.3   205  GLU205      0.1602
     50  C         79.7790    5.7330  152.8260 C.2   205  GLU205      0.2287
     51  O         78.5880    6.0540  152.7240 O.2   205  GLU205     -0.2864
     52  CB        81.2920    6.9740  154.3280 C.3   205  GLU205      0.0415
     53  CG        81.9560    7.2070  155.6550 C.3   205  GLU205      0.1163
     54  CD        81.0440    7.4200  156.8440 C.2   205  GLU205      0.3649
     55  OE1       79.8080    7.4210  156.6670 O.co2 205  GLU205     -0.2457
     56  OE2       81.5780    7.5870  157.9720 O.co2 205  GLU205     -0.2457
     57  N         76.5920    6.7000  161.9730 N.3   222  THR222     -0.1218
     58  CA        78.0040    6.3490  162.1430 C.3   222  THR222      0.1862
     59  C         78.8570    7.0630  161.1000 C.2   222  THR222      0.2287
     60  O         79.6720    6.4830  160.3940 O.2   222  THR222     -0.2866
     61  CB        78.2210    4.8260  162.0960 C.3   222  THR222      0.1770
     62  OG1       77.6940    4.2720  160.8760 O.3   222  THR222     -0.2211
     63  CG2       77.5080    4.1890  163.2840 C.3   222  THR222      0.0375
     64  N         81.5230    9.0760  160.7900 N.3   224  SER224     -0.1217
     65  CA        82.6130    9.2950  161.7320 C.3   224  SER224      0.1889
     66  C         83.4790   10.5220  161.5210 C.2   224  SER224      0.2288
     67  O         83.9010   10.8750  160.4220 O.2   224  SER224     -0.2866
     68  CB        83.5110    8.0350  161.6530 C.3   224  SER224      0.2089
     69  OG        82.8210    6.9560  162.2780 O.3   224  SER224     -0.2183
     70  N         87.0300   12.5760  163.5630 N.3   226  TYR226     -0.1241
     71  CA        88.1780   12.2120  164.3910 C.3   226  TYR226      0.1605
     72  C         88.9230   13.4770  164.7920 C.2   226  TYR226      0.2264
     73  O         88.8060   14.4790  164.0680 O.2   226  TYR226     -0.2867
     74  CB        89.1330   11.2850  163.6380 C.3   226  TYR226      0.0534
     75  CG        88.4780   10.0410  163.0680 C.ar  226  TYR226     -0.0201
     76  CD1       88.4820    8.8780  163.8190 C.ar  226  TYR226     -0.0009
     77  CD2       87.8860   10.0250  161.8120 C.ar  226  TYR226     -0.0009
     78  CE1       87.8920    7.7370  163.3070 C.ar  226  TYR226      0.0417
     79  CE2       87.2880    8.8880  161.2900 C.ar  226  TYR226      0.0417
     80  CZ        87.3030    7.7390  162.0610 C.ar  226  TYR226      0.1957
     81  OH        86.7310    6.5700  161.6080 O.3   226  TYR226     -0.2866
     82  N         93.4350    8.3820  158.2160 N.3   234  ASP234     -0.1225
     83  CA        93.2600    6.9280  158.2130 C.3   234  ASP234      0.1805
     84  C         91.7840    6.5470  158.2850 C.2   234  ASP234      0.2598
     85  O         91.4110    5.4210  157.9540 O.2   234  ASP234     -0.2718
     86  CB        94.0280    6.3120  159.3800 C.3   234  ASP234      0.1424
     87  CG        95.4600    5.9550  159.0300 C.2   234  ASP234      0.3668
     88  OD1       95.8140    5.9020  157.8290 O.co2 234  ASP234     -0.2456
     89  OD2       96.2550    5.7150  159.9630 O.co2 234  ASP234     -0.2456
     90  N         90.9090    7.4600  158.7030 N.am  235  GLY235     -0.1957
     91  CA        89.4700    7.2090  158.6680 C.3   235  GLY235      0.1869
     92  C         88.8790    7.4670  157.2980 C.2   235  GLY235      0.2309
     93  O         87.6610    7.4130  157.0960 O.2   235  GLY235     -0.2863
     94  N         83.5250   15.0030  154.9790 N.3   242  LYS242     -0.1245
     95  CA        82.4560   14.6510  155.9190 C.3   242  LYS242      0.1561
     96  C         81.4000   15.7480  155.9570 C.2   242  LYS242      0.2260
     97  O         80.1960   15.4730  156.1160 O.2   242  LYS242     -0.2867
     98  CB        83.0500   14.3520  157.3170 C.3   242  LYS242      0.0271
     99  CG        83.4600   12.8730  157.4030 C.3   242  LYS242      0.0035
    100  CD        82.2550   12.0160  157.7490 C.3   242  LYS242      0.0206
    101  CE        82.3370   10.6240  157.1610 C.3   242  LYS242      0.1093
    102  NZ        83.2000    9.6950  157.9440 N.3   242  LYS242     -0.1314
    103  N         79.3650   10.6860  164.2350 N.3   259  THR259     -0.1218
    104  CA        79.8020    9.9210  165.3980 C.3   259  THR259      0.1862
    105  C         81.2480   10.2970  165.7290 C.2   259  THR259      0.2287
    106  O         82.0740   10.4170  164.8150 O.2   259  THR259     -0.2866
    107  CB        79.7510    8.3910  165.1920 C.3   259  THR259      0.1770
    108  OG1       78.3890    7.9790  165.0110 O.3   259  THR259     -0.2211
    109  CG2       80.2630    7.6700  166.4270 C.3   259  THR259      0.0375
    110  N         89.4760    7.4720  170.2920 N.3   264  SER264     -0.1217
    111  CA        89.6560    6.9890  168.9360 C.3   264  SER264      0.1889
    112  C         91.0830    7.2700  168.4690 C.2   264  SER264      0.2288
    113  O         91.6950    6.4600  167.7680 O.2   264  SER264     -0.2866
    114  CB        88.6470    7.6210  167.9670 C.3   264  SER264      0.2089
    115  OG        88.7660    9.0350  167.8990 O.3   264  SER264     -0.2183
    116  N         93.5410    4.9600  170.1090 N.3   267  GLN267     -0.1231
    117  CA        93.3180    3.6580  169.4840 C.3   267  GLN267      0.1698
    118  C         93.9270    3.6090  168.0860 C.2   267  GLN267      0.2592
    119  O         94.4200    2.5530  167.6970 O.2   267  GLN267     -0.2718
    120  CB        91.8180    3.3910  169.4060 C.3   267  GLN267      0.0381
    121  CG        91.3850    2.1980  168.5960 C.3   267  GLN267      0.0905
    122  CD        91.8290    0.8740  169.1790 C.2   267  GLN267      0.2608
    123  OE1       91.0300    0.1950  169.8230 O.2   267  GLN267     -0.2717
    124  NE2       93.0870    0.5150  168.9360 N.am  267  GLN267     -0.0878
    125  N         93.8750    4.7330  167.3820 N.am  268  MET268     -0.1979
    126  CA        94.3360    4.7370  165.9950 C.3   268  MET268      0.1605
    127  C         95.7380    5.3100  165.8540 C.2   268  MET268      0.2287
    128  O         96.2370    5.5870  164.7630 O.2   268  MET268     -0.2864
    129  CB        93.2950    5.4560  165.1160 C.3   268  MET268      0.0413
    130  CG        92.1300    4.5370  164.7740 C.3   268  MET268      0.0598
    131  SD        90.7450    5.3650  163.9760 S.3   268  MET268     -0.1393
    132  CE        91.4190    5.5610  162.3230 C.3   268  MET268      0.0692
    133  N         82.6100    3.2070  170.4260 N.3   301  SER301     -0.1202
    134  CA        83.3020    1.9330  170.2430 C.3   301  SER301      0.2020
    135  C         84.6990    1.8940  170.8400 C.2   301  SER301      0.2619
    136  O         85.2950    0.8170  170.9420 O.2   301  SER301     -0.2717
    137  CB        83.3910    1.5930  168.7410 C.3   301  SER301      0.2103
    138  OG        82.0590    1.4850  168.2570 O.3   301  SER301     -0.2182
    139  N         85.2480    3.0330  171.2360 N.am  302  CYS302     -0.1969
    140  CA        86.5830    2.9980  171.8230 C.3   302  CYS302      0.1712
    141  C         86.5670    3.0340  173.3380 C.2   302  CYS302      0.2296
    142  O         87.5560    3.4410  173.9640 O.2   302  CYS302     -0.2864
    143  CB        87.4030    4.1760  171.2840 C.3   302  CYS302      0.0983
    144  SG        87.5330    4.0660  169.4670 S.3   302  CYS302     -0.0798
    145  N         78.3940    0.0130  174.0510 N.3   336  GLN336     -0.1245
    146  CA        79.5770   -0.8040  173.7890 C.3   336  GLN336      0.1566
    147  C         80.1780   -1.3760  175.0690 C.2   336  GLN336      0.2260
    148  O         80.2850   -0.7490  176.1310 O.2   336  GLN336     -0.2867
    149  CB        80.6330    0.0220  173.0320 C.3   336  GLN336      0.0367
    150  CG        80.1940    0.4970  171.6490 C.3   336  GLN336      0.0905
    151  CD        80.2900   -0.6210  170.6210 C.2   336  GLN336      0.2608
    152  OE1       81.1960   -0.5800  169.7860 O.2   336  GLN336     -0.2717
    153  NE2       79.3880   -1.5890  170.7030 N.am  336  GLN336     -0.0878
    154  N         76.4590   -7.2540  166.7680 N.3   373  MET373     -0.1230
    155  CA        77.5310   -7.1790  165.7650 C.3   373  MET373      0.1702
    156  C         78.3750   -5.9170  165.8930 C.2   373  MET373      0.2592
    157  O         79.2780   -5.6380  165.0810 O.2   373  MET373     -0.2718
    158  CB        76.9360   -7.3700  164.3620 C.3   373  MET373      0.0401
    159  CG        76.4040   -8.7930  164.1640 C.3   373  MET373      0.0596
    160  SD        77.6960  -10.0490  164.3960 S.3   373  MET373     -0.1393
    161  CE        79.1120   -9.2040  163.6940 C.3   373  MET373      0.0692
    162  N         78.1700   -5.1360  166.9550 N.am  374  PHE374     -0.1962
    163  CA        79.1530   -4.0910  167.2660 C.3   374  PHE374      0.1771
    164  C         80.0360   -4.5840  168.4110 C.2   374  PHE374      0.2619
    165  O         80.5760   -3.7980  169.1890 O.2   374  PHE374     -0.2715
    166  CB        78.4970   -2.7600  167.6160 C.3   374  PHE374      0.0574
    167  CG        77.6870   -2.1320  166.4960 C.ar  374  PHE374     -0.0200
    168  CD1       78.2980   -1.4270  165.4750 C.ar  374  PHE374     -0.0042
    169  CD2       76.3040   -2.2570  166.4670 C.ar  374  PHE374     -0.0042
    170  CE1       77.5450   -0.8470  164.4620 C.ar  374  PHE374     -0.0003
    171  CE2       75.5460   -1.6680  165.4610 C.ar  374  PHE374     -0.0003
    172  CZ        76.1580   -0.9600  164.4440 C.ar  374  PHE374     -0.0000
    173  N         80.1710   -5.9060  168.4970 N.am  375  ALA375     -0.1977
    174  CA        81.0640   -6.5460  169.4620 C.3   375  ALA375      0.1597
    175  C         80.6280   -6.3650  170.9130 C.2   375  ALA375      0.2287
    176  O         81.4600   -6.4360  171.8260 O.2   375  ALA375     -0.2864
    177  CB        82.4850   -6.0480  169.2480 C.3   375  ALA375      0.0319
@<TRIPOS>BOND
     1    46    45   ar
     2    47    45   ar
     3    45    44    1
     4    51    50    2
     5    50    49    1
     6    44    43    1
     7    23    22    2
     8    22    21    1
     9    43    40    1
    10    42    41    2
    11    49    52    1
    12    49    48    1
    13    24    21    1
    14    52    53    1
    15    37    36    1
    16    41    48   am
    17    41    40    1
    18    21    20    1
    19    40    39    1
    20    94    95    1
    21    39    33   am
    22    35    36    1
    23    35    32    1
    24    53    54    1
    25    36    38    1
    26    95    96    1
    27    95    98    1
    28    96    97    2
    29    33    32    1
    30    33    34    2
    31    55    54   ar
    32    54    56   ar
    33    32    31    1
    34    13    12    1
    35    93    92    2
    36   101   100    1
    37   101   102    1
    38    92    91    1
    39    98    99    1
    40    99   100    1
    41    14    12    1
    42    12     9    1
    43    88    87   ar
    44    31    27   am
    45    85    84    2
    46    83    82    1
    47    83    84    1
    48    83    86    1
    49    84    90   am
    50    91    90    1
    51    18    17    2
    52    17    16    1
    53    27    28    2
    54    27    26    1
    55    87    86    1
    56    87    89   ar
    57     9    10    1
    58     9     8    1
    59    25    26    1
    60    26    29    1
    61    15    10   am
    62    15    16    1
    63    10    11    2
    64     8     3   am
    65    16    19    1
    66    60    59    2
    67    67    66    2
    68     3     4    2
    69     3     2    1
    70    64    65    1
    71    62    61    1
    72     6     5    1
    73     2     1    1
    74     2     5    1
    75    59    58    1
    76    29    30    1
    77    79    77   ar
    78    79    80   ar
    79    66    65    1
    80    81    80    1
    81    68    65    1
    82    68    69    1
    83     5     7    1
    84    77    75   ar
    85    57    58    1
    86    80    78   ar
    87    61    58    1
    88    61    63    1
    89   132   131    1
    90    75    74    1
    91    75    76   ar
    92    78    76   ar
    93    70    71    1
    94    74    71    1
    95   161   160    1
    96   131   130    1
    97    73    72    2
    98   159   158    1
    99   159   160    1
   100   103   104    1
   101   158   155    1
   102    71    72    1
   103   172   170   ar
   104   172   171   ar
   105   170   168   ar
   106   128   127    2
   107   130   129    1
   108   106   105    2
   109   108   107    1
   110   157   156    2
   111   129   126    1
   112   107   104    1
   113   107   109    1
   114   104   105    1
   115   171   169   ar
   116   168   167   ar
   117   155   156    1
   118   155   154    1
   119   127   126    1
   120   156   162   am
   121   126   125    1
   122   169   167   ar
   123   167   166    1
   124   162   163    1
   125   163   166    1
   126   163   164    1
   127   125   118   am
   128   119   118    2
   129   113   112    2
   130   115   114    1
   131   114   111    1
   132   118   117    1
   133   138   137    1
   134   164   173   am
   135   164   165    2
   136   112   111    1
   137   173   174    1
   138   121   122    1
   139   121   120    1
   140   137   134    1
   141   124   122   am
   142   111   110    1
   143   122   123    2
   144   177   174    1
   145   120   117    1
   146   174   175    1
   147   144   143    1
   148   117   116    1
   149   152   151    2
   150   134   133    1
   151   134   135    1
   152   151   153   am
   153   151   150    1
   154   135   136    2
   155   135   139   am
   156   175   176    2
   157   139   140    1
   158   143   140    1
   159   150   149    1
   160   140   141    1
   161   149   146    1
   162   141   142    2
   163   146   145    1
   164   146   147    1
   165   147   148    2
