@<TRIPOS>MOLECULE
tmp/1egyA02.pdb
 116 110 0 0 0
SMALL
GASTEIGER

@<TRIPOS>ATOM
      1  N        -22.0720    5.1000   15.2020 N.3    73  ALA73      -0.1231
      2  CA       -20.7900    5.0640   15.8710 C.3    73  ALA73       0.1694
      3  C        -20.9130    5.1780   17.3790 C.2    73  ALA73       0.2592
      4  O        -20.0260    4.7430   18.1050 O.2    73  ALA73      -0.2718
      5  CB       -19.9080    6.1690   15.3450 C.3    73  ALA73       0.0304
      6  N        -22.0140    5.7410   17.8610 N.am   74  TYR74      -0.1976
      7  CA       -22.1890    5.9230   19.2990 C.3    74  TYR74       0.1639
      8  C        -23.0250    4.8450   19.9850 C.2    74  TYR74       0.2290
      9  O        -23.5750    5.0440   21.0770 O.2    74  TYR74      -0.2864
     10  CB       -22.7410    7.3200   19.5930 C.3    74  TYR74       0.0560
     11  CG       -21.8160    8.4380   19.1780 C.ar   74  TYR74      -0.0198
     12  CD1      -21.9660    9.0750   17.9470 C.ar   74  TYR74      -0.0009
     13  CD2      -20.7550    8.8260   19.9930 C.ar   74  TYR74      -0.0009
     14  CE1      -21.0730   10.0640   17.5360 C.ar   74  TYR74       0.0417
     15  CE2      -19.8570    9.8120   19.5890 C.ar   74  TYR74       0.0417
     16  CZ       -20.0190   10.4200   18.3610 C.ar   74  TYR74       0.1957
     17  OH       -19.0930   11.3430   17.9360 O.3    74  TYR74      -0.2866
     18  N        -22.7020    4.3070   24.0160 N.3    77  PHE77      -0.1241
     19  CA       -22.0960    5.3840   24.7950 C.3    77  PHE77       0.1605
     20  C        -23.0890    6.2260   25.5720 C.2    77  PHE77       0.2264
     21  O        -23.9840    6.8190   24.9780 O.2    77  PHE77      -0.2867
     22  CB       -21.3540    6.3600   23.8830 C.3    77  PHE77       0.0534
     23  CG       -20.1720    5.7770   23.1670 C.ar   77  PHE77      -0.0203
     24  CD1      -20.1020    4.4310   22.8550 C.ar   77  PHE77      -0.0042
     25  CD2      -19.1290    6.5980   22.7820 C.ar   77  PHE77      -0.0042
     26  CE1      -19.0090    3.9160   22.1710 C.ar   77  PHE77      -0.0003
     27  CE2      -18.0370    6.0900   22.1010 C.ar   77  PHE77      -0.0003
     28  CZ       -17.9770    4.7520   21.7940 C.ar   77  PHE77      -0.0000
     29  N        -16.8760   12.4700   23.4430 N.3    85  PHE85      -0.1241
     30  CA       -16.3580   11.9670   22.1720 C.3    85  PHE85       0.1605
     31  C        -16.7350   12.8710   21.0060 C.2    85  PHE85       0.2264
     32  O        -16.1350   12.7880   19.9320 O.2    85  PHE85      -0.2867
     33  CB       -16.9120   10.5750   21.8710 C.3    85  PHE85       0.0534
     34  CG       -16.0660    9.4550   22.3820 C.ar   85  PHE85      -0.0203
     35  CD1      -15.2610    8.7300   21.5190 C.ar   85  PHE85      -0.0042
     36  CD2      -16.1090    9.0870   23.7240 C.ar   85  PHE85      -0.0042
     37  CE1      -14.5120    7.6460   21.9770 C.ar   85  PHE85      -0.0003
     38  CE2      -15.3600    8.0040   24.1900 C.ar   85  PHE85      -0.0003
     39  CZ       -14.5640    7.2850   23.3100 C.ar   85  PHE85      -0.0000
     40  N        -14.1270   -0.5100   21.0340 N.3   173  ILE173     -0.1231
     41  CA       -14.8540    0.6460   20.5050 C.3   173  ILE173      0.1692
     42  C        -15.0580    0.5680   18.9920 C.2   173  ILE173      0.2591
     43  O        -16.0620    1.0580   18.4710 O.2   173  ILE173     -0.2718
     44  CB       -14.1110    1.9640   20.8600 C.3   173  ILE173      0.0266
     45  CG1      -14.1930    2.2070   22.3680 C.3   173  ILE173      0.0019
     46  CG2      -14.6870    3.1520   20.0930 C.3   173  ILE173      0.0020
     47  CD1      -13.3980    3.3960   22.8410 C.3   173  ILE173      0.0001
     48  N        -14.1270   -0.0800   18.2980 N.am  174  LEU174     -0.1980
     49  CA       -14.1890   -0.1890   16.8460 C.3   174  LEU174      0.1596
     50  C        -15.1850   -1.1820   16.2370 C.2   174  LEU174      0.2287
     51  O        -15.2900   -1.2700   15.0070 O.2   174  LEU174     -0.2864
     52  CB       -12.7950   -0.4350   16.2780 C.3   174  LEU174      0.0297
     53  CG       -11.8080    0.7060   16.5030 C.3   174  LEU174      0.0022
     54  CD1      -10.5220    0.3920   15.7830 C.3   174  LEU174      0.0001
     55  CD2      -12.3920    2.0210   16.0010 C.3   174  LEU174      0.0001
     56  N        -19.3640   -1.8370   25.1880 N.3   184  ARG184     -0.1245
     57  CA       -18.9380   -0.7300   24.3350 C.3   184  ARG184      0.1563
     58  C        -19.0940    0.5840   25.0840 C.2   184  ARG184      0.2260
     59  O        -18.2760    1.4880   24.9350 O.2   184  ARG184     -0.2867
     60  CB       -19.7450   -0.7140   23.0270 C.3   184  ARG184      0.0307
     61  CG       -19.0530   -0.0530   21.8420 C.3   184  ARG184      0.0489
     62  CD       -19.9110   -0.1110   20.5780 C.3   184  ARG184      0.2205
     63  NE       -19.2120    0.4740   19.4350 N.pl3 184  ARG184     -0.0865
     64  CZ       -19.3080    1.7510   19.0680 C.cat 184  ARG184      0.5346
     65  NH1      -20.0890    2.5780   19.7400 N.pl3 184  ARG184      0.1354
     66  NH2      -18.5620    2.2170   18.0720 N.pl3 184  ARG184      0.1354
     67  N         -9.9110   12.4220   20.4260 N.3   236  VAL236     -0.1245
     68  CA       -10.0320   12.1060   19.0170 C.3   236  VAL236      0.1561
     69  C         -8.6700   11.9920   18.3550 C.2   236  VAL236      0.2260
     70  O         -8.4300   11.0700   17.5940 O.2   236  VAL236     -0.2867
     71  CB       -10.8930   13.1540   18.2840 C.3   236  VAL236      0.0252
     72  CG1      -10.2060   14.5150   18.2660 C.3   236  VAL236      0.0019
     73  CG2      -11.2220   12.6870   16.8800 C.3   236  VAL236      0.0019
     74  N         -7.1250    8.7100   19.5830 N.3   239  LEU239     -0.1231
     75  CA        -7.8190    7.5230   19.1220 C.3   239  LEU239      0.1693
     76  C         -7.8150    7.4070   17.6070 C.2   239  LEU239      0.2591
     77  O         -7.2390    6.4690   17.0490 O.2   239  LEU239     -0.2718
     78  CB        -9.2520    7.4890   19.6630 C.3   239  LEU239      0.0284
     79  CG        -9.5750    6.2660   20.5280 C.3   239  LEU239      0.0019
     80  CD1       -8.7300    6.3150   21.8110 C.3   239  LEU239      0.0001
     81  CD2      -11.0660    6.2110   20.8420 C.3   239  LEU239      0.0001
     82  N         -8.4350    8.3650   16.9370 N.am  240  ALA240     -0.1980
     83  CA        -8.4810    8.3570   15.4810 C.3   240  ALA240      0.1597
     84  C         -7.0860    8.4650   14.8710 C.2   240  ALA240      0.2287
     85  O         -6.8890    8.1480   13.7010 O.2   240  ALA240     -0.2864
     86  CB        -9.3350    9.4970   14.9880 C.3   240  ALA240      0.0319
     87  N         -5.2570    4.3810   15.7080 N.3   243  GLU243     -0.1231
     88  CA        -5.9660    3.2740   15.0660 C.3   243  GLU243      0.1699
     89  C         -5.9480    3.3000   13.5370 C.2   243  GLU243      0.2592
     90  O         -5.6190    2.3080   12.8980 O.2   243  GLU243     -0.2718
     91  CB        -7.4060    3.1830   15.5730 C.3   243  GLU243      0.0402
     92  CG        -7.5530    2.5760   16.9590 C.3   243  GLU243      0.1161
     93  CD        -7.1760    1.0940   17.0930 C.2   243  GLU243      0.3649
     94  OE1       -7.2440    0.5700   18.2250 O.co2 243  GLU243     -0.2457
     95  OE2       -6.8210    0.4430   16.0880 O.co2 243  GLU243     -0.2457
     96  N         -6.2680    4.4450   12.9470 N.am  244  ALA244     -0.1980
     97  CA        -6.2980    4.5830   11.4920 C.3   244  ALA244      0.1597
     98  C         -4.9320    4.3170   10.8790 C.2   244  ALA244      0.2287
     99  O         -4.8260    3.8100    9.7680 O.2   244  ALA244     -0.2864
    100  CB        -6.7920    5.9710   11.1060 C.3   244  ALA244      0.0319
    101  N        -16.8470    1.2090   10.5580 N.3   390  LEU390     -0.1231
    102  CA       -16.2940    2.4070   11.1640 C.3   390  LEU390      0.1693
    103  C        -14.8200    2.5500   10.8240 C.2   390  LEU390      0.2591
    104  O        -14.3940    3.5960   10.3690 O.2   390  LEU390     -0.2718
    105  CB       -16.4450    2.2950   12.6750 C.3   390  LEU390      0.0284
    106  CG       -16.8930    3.5130   13.4660 C.3   390  LEU390      0.0019
    107  CD1      -18.1220    4.1250   12.8110 C.3   390  LEU390      0.0001
    108  CD2      -17.1980    3.0910   14.8950 C.3   390  LEU390      0.0001
    109  N        -14.0520    1.4880   11.0370 N.am  391  LEU391     -0.1980
    110  CA       -12.6230    1.5070   10.7630 C.3   391  LEU391      0.1596
    111  C        -12.1730    0.1020   10.3910 C.2   391  LEU391      0.2287
    112  O        -12.0080   -0.7490   11.2610 O.2   391  LEU391     -0.2864
    113  CB       -11.8690    1.9860   12.0050 C.3   391  LEU391      0.0297
    114  CG       -10.5130    2.6910   11.8850 C.3   391  LEU391      0.0022
    115  CD1       -9.4050    1.6980   11.7840 C.3   391  LEU391      0.0001
    116  CD2      -10.4990    3.6470   10.7090 C.3   391  LEU391      0.0001
@<TRIPOS>BOND
     1    99    98    2
     2   104   103    2
     3   111   110    1
     4   111   112    2
     5   101   102    1
     6   116   114    1
     7   110   109    1
     8   110   113    1
     9   103   109   am
    10   103   102    1
    11    98    97    1
    12   100    97    1
    13   102   105    1
    14    97    96    1
    15   115   114    1
    16   114   113    1
    17   105   106    1
    18   107   106    1
    19    90    89    2
    20    96    89   am
    21   106   108    1
    22    89    88    1
    23    85    84    2
    24    84    83    1
    25    86    83    1
    26    51    50    2
    27    88    91    1
    28    88    87    1
    29     1     2    1
    30     5     2    1
    31    83    82    1
    32    91    92    1
    33    54    53    1
    34     2     3    1
    35    55    53    1
    36    95    93   ar
    37    50    49    1
    38    52    53    1
    39    52    49    1
    40    49    48    1
    41    73    71    1
    42    82    76   am
    43    92    93    1
    44    77    76    2
    45    93    94   ar
    46     3     6   am
    47     3     4    2
    48    14    12   ar
    49    14    16   ar
    50    70    69    2
    51    76    75    1
    52     6     7    1
    53    17    16    1
    54    12    11   ar
    55    66    64    1
    56    72    71    1
    57    71    68    1
    58    48    42   am
    59    69    68    1
    60    16    15   ar
    61    43    42    2
    62    42    41    1
    63    68    67    1
    64    64    63    2
    65    64    65    1
    66    75    74    1
    67    75    78    1
    68    11    10    1
    69    11    13   ar
    70     7    10    1
    71     7     8    1
    72    63    62    1
    73    15    13   ar
    74    78    79    1
    75    32    31    2
    76     8     9    2
    77    46    44    1
    78    41    44    1
    79    41    40    1
    80    79    81    1
    81    79    80    1
    82    62    61    1
    83    44    45    1
    84    31    30    1
    85    35    37   ar
    86    35    34   ar
    87    28    27   ar
    88    28    26   ar
    89    61    60    1
    90    33    30    1
    91    33    34    1
    92    37    39   ar
    93    27    25   ar
    94    26    24   ar
    95    30    29    1
    96    45    47    1
    97    34    36   ar
    98    25    23   ar
    99    24    23   ar
   100    60    57    1
   101    23    22    1
   102    39    38   ar
   103    36    38   ar
   104    22    19    1
   105    18    19    1
   106    57    58    1
   107    57    56    1
   108    19    20    1
   109    59    58    2
   110    21    20    2
