@<TRIPOS>MOLECULE
tmp/1egyA01.pdb
 89 80 0 0 0
SMALL
GASTEIGER

@<TRIPOS>ATOM
      1  N        -15.3040   18.1870   19.2300 N.3    88  ASN88      -0.1240
      2  CA       -14.0890   18.5460   18.5110 C.3    88  ASN88       0.1653
      3  C        -14.4390   18.8640   17.0640 C.2    88  ASN88       0.2266
      4  O        -15.6180   18.9190   16.7120 O.2    88  ASN88      -0.2867
      5  CB       -13.0840   17.3970   18.5530 C.3    88  ASN88       0.1155
      6  CG       -13.6570   16.1060   18.0240 C.2    88  ASN88       0.2627
      7  OD1      -14.2410   15.3340   18.7680 O.2    88  ASN88      -0.2716
      8  ND2      -13.4830   15.8570   16.7350 N.am   88  ASN88      -0.0877
      9  N        -14.0650   17.0630   14.0650 N.3    90  GLY90      -0.1210
     10  CA       -14.7090   16.0040   13.3050 C.3    90  GLY90       0.1956
     11  C        -16.1920   15.8640   13.5510 C.2    90  GLY90       0.2612
     12  O        -16.9060   15.3110   12.7190 O.2    90  GLY90      -0.2717
     13  N        -16.6570   16.3490   14.6960 N.am   91  THR91      -0.1952
     14  CA       -18.0700   16.2850   15.0450 C.3    91  THR91       0.1897
     15  C        -18.6330   17.6650   15.4040 C.2    91  THR91       0.2313
     16  O        -19.1870   17.8620   16.4820 O.2    91  THR91      -0.2863
     17  CB       -18.2800   15.3270   16.2100 C.3    91  THR91       0.1794
     18  OG1      -17.0750   15.2490   16.9770 O.3    91  THR91      -0.2208
     19  CG2      -18.6420   13.9490   15.6990 C.3    91  THR91       0.0378
     20  N         -9.9110   12.4220   20.4260 N.3   236  VAL236     -0.1245
     21  CA       -10.0320   12.1060   19.0170 C.3   236  VAL236      0.1561
     22  C         -8.6700   11.9920   18.3550 C.2   236  VAL236      0.2260
     23  O         -8.4300   11.0700   17.5940 O.2   236  VAL236     -0.2867
     24  CB       -10.8930   13.1540   18.2840 C.3   236  VAL236      0.0252
     25  CG1      -10.2060   14.5150   18.2660 C.3   236  VAL236      0.0019
     26  CG2      -11.2220   12.6870   16.8800 C.3   236  VAL236      0.0019
     27  N         -8.4350    8.3650   16.9370 N.3   240  ALA240     -0.1231
     28  CA        -8.4810    8.3570   15.4810 C.3   240  ALA240      0.1694
     29  C         -7.0860    8.4650   14.8710 C.2   240  ALA240      0.2592
     30  O         -6.8890    8.1480   13.7010 O.2   240  ALA240     -0.2718
     31  CB        -9.3350    9.4970   14.9880 C.3   240  ALA240      0.0304
     32  N         -6.1290    8.9430   15.6560 N.am  241  GLY241     -0.1957
     33  CA        -4.7710    9.1130   15.1750 C.3   241  GLY241      0.1869
     34  C         -3.8650    7.9030   15.2330 C.2   241  GLY241      0.2309
     35  O         -2.8650    7.8470   14.5220 O.2   241  GLY241     -0.2863
     36  N         -6.2680    4.4450   12.9470 N.3   244  ALA244     -0.1245
     37  CA        -6.2980    4.5830   11.4920 C.3   244  ALA244      0.1562
     38  C         -4.9320    4.3170   10.8790 C.2   244  ALA244      0.2260
     39  O         -4.8260    3.8100    9.7680 O.2   244  ALA244     -0.2867
     40  CB        -6.7920    5.9710   11.1060 C.3   244  ALA244      0.0290
     41  N        -11.4370    4.2540    6.6890 N.3   287  PRO287     -0.2116
     42  CA       -12.7570    4.7830    7.0620 C.3   287  PRO287      0.1372
     43  C        -13.8080    4.3200    6.0520 C.2   287  PRO287      0.2244
     44  O        -14.2970    5.1000    5.2460 O.2   287  PRO287     -0.2868
     45  CB       -12.5510    6.2980    6.9930 C.3   287  PRO287      0.0268
     46  CG       -11.5200    6.4610    5.9240 C.3   287  PRO287      0.0207
     47  CD       -10.5470    5.3490    6.2500 C.3   287  PRO287      0.0892
     48  N        -16.8580    3.8610    5.9700 N.3   289  THR289     -0.1203
     49  CA       -18.0210    4.7280    5.8420 C.3   289  THR289      0.1994
     50  C        -17.8360    5.9310    6.7580 C.2   289  THR289      0.2618
     51  O        -17.0780    5.8600    7.7250 O.2   289  THR289     -0.2717
     52  CB       -19.3650    4.0150    6.2300 C.3   289  THR289      0.1784
     53  OG1      -19.3830    3.7120    7.6240 O.3   289  THR289     -0.2211
     54  CG2      -19.5630    2.7330    5.4510 C.3   289  THR289      0.0376
     55  N        -18.4510    7.0540    6.3950 N.am  290  THR290     -0.1952
     56  CA       -18.4220    8.2650    7.2070 C.3   290  THR290      0.1897
     57  C        -19.8800    8.6190    7.4060 C.2   290  THR290      0.2313
     58  O        -20.7080    8.3180    6.5590 O.2   290  THR290     -0.2863
     59  CB       -17.6560    9.4110    6.5480 C.3   290  THR290      0.1794
     60  OG1      -17.9690    9.4700    5.1560 O.3   290  THR290     -0.2208
     61  CG2      -16.1780    9.2100    6.7320 C.3   290  THR290      0.0378
     62  N        -10.3130    8.8930    1.0290 N.3   342  SER342     -0.1217
     63  CA        -9.8420    8.2660    2.2680 C.3   342  SER342      0.1889
     64  C         -9.4270    9.2250    3.3620 C.2   342  SER342      0.2288
     65  O         -9.4260    8.8410    4.5320 O.2   342  SER342     -0.2866
     66  CB        -8.7080    7.2970    2.0020 C.3   342  SER342      0.2089
     67  OG        -9.1650    6.2460    1.1930 O.3   342  SER342     -0.2183
     68  N         -8.8550   15.3170    6.5240 N.3   350  CYS350     -0.1235
     69  CA        -7.9400   14.8680    7.5540 C.3   350  CYS350      0.1677
     70  C         -6.7420   15.7950    7.8200 C.2   350  CYS350      0.2270
     71  O         -5.8740   15.9840    6.9690 O.2   350  CYS350     -0.2867
     72  CB        -7.4630   13.4510    7.2310 C.3   350  CYS350      0.0956
     73  SG        -6.6960   12.5420    8.5820 S.3   350  CYS350     -0.0801
     74  N        -16.8470    1.2090   10.5580 N.3   390  LEU390     -0.1231
     75  CA       -16.2940    2.4070   11.1640 C.3   390  LEU390      0.1693
     76  C        -14.8200    2.5500   10.8240 C.2   390  LEU390      0.2591
     77  O        -14.3940    3.5960   10.3690 O.2   390  LEU390     -0.2718
     78  CB       -16.4450    2.2950   12.6750 C.3   390  LEU390      0.0284
     79  CG       -16.8930    3.5130   13.4660 C.3   390  LEU390      0.0019
     80  CD1      -18.1220    4.1250   12.8110 C.3   390  LEU390      0.0001
     81  CD2      -17.1980    3.0910   14.8950 C.3   390  LEU390      0.0001
     82  N        -14.0520    1.4880   11.0370 N.am  391  LEU391     -0.1980
     83  CA       -12.6230    1.5070   10.7630 C.3   391  LEU391      0.1596
     84  C        -12.1730    0.1020   10.3910 C.2   391  LEU391      0.2287
     85  O        -12.0080   -0.7490   11.2610 O.2   391  LEU391     -0.2864
     86  CB       -11.8690    1.9860   12.0050 C.3   391  LEU391      0.0297
     87  CG       -10.5130    2.6910   11.8850 C.3   391  LEU391      0.0022
     88  CD1       -9.4050    1.6980   11.7840 C.3   391  LEU391      0.0001
     89  CD2      -10.4990    3.6470   10.7090 C.3   391  LEU391      0.0001
@<TRIPOS>BOND
     1    62    63    1
     2    67    66    1
     3    66    63    1
     4    63    64    1
     5    64    65    2
     6    60    59    1
     7    44    43    2
     8    54    52    1
     9    49    48    1
    10    49    52    1
    11    49    50    1
    12    46    47    1
    13    46    45    1
    14    43    42    1
    15    52    53    1
    16    47    41    1
    17    55    50   am
    18    55    56    1
    19    68    69    1
    20    59    61    1
    21    59    56    1
    22    58    57    2
    23    41    42    1
    24    50    51    2
    25    71    70    2
    26    45    42    1
    27    56    57    1
    28    72    69    1
    29    72    73    1
    30    69    70    1
    31    39    38    2
    32    77    76    2
    33    84    83    1
    34    84    85    2
    35    74    75    1
    36    89    87    1
    37    83    82    1
    38    83    86    1
    39    76    82   am
    40    76    75    1
    41    38    37    1
    42    40    37    1
    43    75    78    1
    44    37    36    1
    45    88    87    1
    46    87    86    1
    47    78    79    1
    48    12    11    2
    49    80    79    1
    50    10    11    1
    51    10     9    1
    52    79    81    1
    53    11    13   am
    54    30    29    2
    55    35    34    2
    56    13    14    1
    57    29    28    1
    58    29    32   am
    59    31    28    1
    60    14    15    1
    61    14    17    1
    62    33    34    1
    63    33    32    1
    64    15    16    2
    65    28    27    1
    66    19    17    1
    67    17    18    1
    68     4     3    2
    69     8     6   am
    70    26    24    1
    71     3     2    1
    72    23    22    2
    73     6     5    1
    74     6     7    2
    75    25    24    1
    76    24    21    1
    77    22    21    1
    78     2     5    1
    79     2     1    1
    80    21    20    1
