@<TRIPOS>MOLECULE
tmp/1eh4A00.pdb
 164 153 0 0 0
SMALL
GASTEIGER

@<TRIPOS>ATOM
      1  N        -16.9090   83.0420   71.6460 N.3    13  ILE13      -0.1231
      2  CA       -16.2130   82.0060   70.8900 C.3    13  ILE13       0.1692
      3  C        -16.3230   82.2210   69.3910 C.2    13  ILE13       0.2593
      4  O        -15.8930   81.3910   68.5920 O.2    13  ILE13      -0.2718
      5  CB       -16.7340   80.5870   71.2420 C.3    13  ILE13       0.0266
      6  CG1      -18.2300   80.4850   70.9650 C.3    13  ILE13       0.0019
      7  CG2      -16.4370   80.2730   72.6980 C.3    13  ILE13       0.0020
      8  CD1      -18.8570   79.2190   71.5140 C.3    13  ILE13       0.0001
      9  N        -16.8960   83.3470   69.0070 N.am   14  GLY14      -0.1942
     10  CA       -17.0180   83.6340   67.5970 C.3    14  GLY14       0.2014
     11  C        -18.3880   84.1320   67.2250 C.2    14  GLY14       0.2639
     12  O        -19.2530   84.3350   68.0690 O.2    14  GLY14      -0.2714
     13  N        -18.5790   84.3420   65.9380 N.am   15  GLU15      -0.1963
     14  CA       -19.8530   84.8030   65.4450 C.3    15  GLU15       0.1733
     15  C        -20.1450   83.9800   64.2080 C.2    15  GLU15       0.2617
     16  O        -19.2780   83.2740   63.6950 O.2    15  GLU15      -0.2715
     17  CB       -19.7800   86.2910   65.0870 C.3    15  GLU15       0.0429
     18  CG       -19.8690   86.5890   63.5990 C.3    15  GLU15       0.1163
     19  CD       -18.7110   87.4210   63.0980 C.2    15  GLU15       0.3649
     20  OE1      -17.5520   87.0230   63.3390 O.co2  15  GLU15      -0.2457
     21  OE2      -18.9600   88.4660   62.4570 O.co2  15  GLU15      -0.2457
     22  N        -21.3750   84.0650   63.7350 N.am   16  GLY16      -0.1940
     23  CA       -21.7270   83.3320   62.5520 C.3    16  GLY16       0.2014
     24  C        -22.6050   84.1500   61.6500 C.2    16  GLY16       0.2639
     25  O        -23.1850   85.1430   62.0880 O.2    16  GLY16      -0.2714
     26  N        -22.6780   83.7490   60.3850 N.am   17  SER17      -0.1949
     27  CA       -23.5180   84.4350   59.4190 C.3    17  SER17       0.1924
     28  C        -24.9010   84.4400   60.0540 C.2    17  SER17       0.2314
     29  O        -25.7490   83.6100   59.7280 O.2    17  SER17      -0.2863
     30  CB       -23.5290   83.6670   58.0940 C.3    17  SER17       0.2116
     31  OG       -23.8120   82.2920   58.3000 O.3    17  SER17      -0.2180
     32  N        -21.7150   84.3970   69.0400 N.3    21  ILE21      -0.1245
     33  CA       -21.9300   83.1620   69.8150 C.3    21  ILE21       0.1561
     34  C        -20.9650   83.1510   71.0070 C.2    21  ILE21       0.2260
     35  O        -19.7460   83.1910   70.8100 O.2    21  ILE21      -0.2867
     36  CB       -21.6420   81.8570   68.9800 C.3    21  ILE21       0.0252
     37  CG1      -22.6510   81.6860   67.8380 C.3    21  ILE21       0.0019
     38  CG2      -21.7250   80.6280   69.8810 C.3    21  ILE21       0.0019
     39  CD1      -22.4100   82.5750   66.6450 C.3    21  ILE21       0.0001
     40  N        -23.3760   76.3920   74.3550 N.3    34  ALA34      -0.1245
     41  CA       -23.0730   77.3570   73.3130 C.3    34  ALA34       0.1562
     42  C        -24.2800   78.2630   73.3880 C.2    34  ALA34       0.2260
     43  O        -25.4110   77.7780   73.3390 O.2    34  ALA34      -0.2867
     44  CB       -23.0150   76.6700   71.9510 C.3    34  ALA34       0.0290
     45  N        -26.1990   81.5770   71.7400 N.3    36  LYS36      -0.1245
     46  CA       -26.2440   82.4650   70.6000 C.3    36  LYS36       0.1561
     47  C        -27.1670   83.6450   70.8830 C.2    36  LYS36       0.2260
     48  O        -28.3260   83.4580   71.2590 O.2    36  LYS36      -0.2867
     49  CB       -26.7380   81.6810   69.3890 C.3    36  LYS36       0.0271
     50  CG       -26.7450   82.4510   68.1060 C.3    36  LYS36       0.0035
     51  CD       -26.8470   81.5160   66.9360 C.3    36  LYS36       0.0206
     52  CE       -26.8380   82.2970   65.6690 C.3    36  LYS36       0.1093
     53  NZ       -26.7270   81.4020   64.5180 N.3    36  LYS36      -0.1314
     54  N        -34.1940   79.2690   63.5560 N.3    50  GLU50      -0.1245
     55  CA       -33.0270   78.4050   63.5680 C.3    50  GLU50       0.1567
     56  C        -33.2890   77.3370   64.6200 C.2    50  GLU50       0.2260
     57  O        -32.9820   76.1640   64.4180 O.2    50  GLU50      -0.2867
     58  CB       -31.7620   79.1850   63.9160 C.3    50  GLU50       0.0388
     59  CG       -30.5050   78.3870   63.6530 C.3    50  GLU50       0.1160
     60  CD       -29.2390   79.1300   64.0030 C.2    50  GLU50       0.3649
     61  OE1      -29.1390   80.3190   63.6360 O.co2  50  GLU50      -0.2457
     62  OE2      -28.3410   78.5190   64.6290 O.co2  50  GLU50      -0.2457
     63  N        -33.2070   73.4540   64.4910 N.3    54  TYR54      -0.1241
     64  CA       -32.3650   72.6500   65.3660 C.3    54  TYR54       0.1605
     65  C        -33.2740   71.6070   65.9840 C.2    54  TYR54       0.2264
     66  O        -32.8180   70.5710   66.4660 O.2    54  TYR54      -0.2867
     67  CB       -31.7370   73.5070   66.4760 C.3    54  TYR54       0.0534
     68  CG       -30.3630   74.0550   66.1410 C.ar   54  TYR54      -0.0201
     69  CD1      -29.2390   73.2280   66.1260 C.ar   54  TYR54      -0.0009
     70  CD2      -30.1920   75.3980   65.8210 C.ar   54  TYR54      -0.0009
     71  CE1      -27.9920   73.7290   65.8030 C.ar   54  TYR54       0.0417
     72  CE2      -28.9490   75.9050   65.4950 C.ar   54  TYR54       0.0417
     73  CZ       -27.8520   75.0710   65.4860 C.ar   54  TYR54       0.1957
     74  OH       -26.6200   75.6040   65.1700 O.3    54  TYR54      -0.2866
     75  N        -27.1720   76.0030   72.7980 N.3    80  ILE80      -0.1231
     76  CA       -26.7590   74.8250   72.0220 C.3    80  ILE80       0.1692
     77  C        -25.5090   74.1440   72.5970 C.2    80  ILE80       0.2592
     78  O        -24.7310   74.7720   73.2940 O.2    80  ILE80      -0.2718
     79  CB       -26.4850   75.2370   70.5510 C.3    80  ILE80       0.0266
     80  CG1      -27.7530   75.8320   69.9510 C.3    80  ILE80       0.0019
     81  CG2      -26.0440   74.0430   69.7200 C.3    80  ILE80       0.0020
     82  CD1      -27.5800   76.3390   68.5450 C.3    80  ILE80       0.0001
     83  N        -25.3330   72.8570   72.3100 N.am   81  ASP81      -0.1960
     84  CA       -24.1690   72.1030   72.7830 C.3    81  ASP81       0.1840
     85  C        -22.8810   72.7870   72.3840 C.2    81  ASP81       0.2622
     86  O        -22.8220   73.4370   71.3380 O.2    81  ASP81      -0.2715
     87  CB       -24.1360   70.7130   72.1590 C.3    81  ASP81       0.1450
     88  CG       -25.2480   69.8440   72.6300 C.2    81  ASP81       0.3671
     89  OD1      -25.2020   69.4410   73.8110 O.co2  81  ASP81      -0.2456
     90  OD2      -26.1630   69.5670   71.8260 O.co2  81  ASP81      -0.2456
     91  N        -21.8410   72.6220   73.1950 N.am   82  LEU82      -0.1963
     92  CA       -20.5680   73.2250   72.8540 C.3    82  LEU82       0.1728
     93  C        -19.9400   72.2520   71.8870 C.2    82  LEU82       0.2616
     94  O        -20.2820   71.0770   71.8980 O.2    82  LEU82      -0.2715
     95  CB       -19.6610   73.3730   74.0720 C.3    82  LEU82       0.0311
     96  CG       -18.5360   74.3880   73.8180 C.3    82  LEU82       0.0022
     97  CD1      -19.1250   75.7810   73.9990 C.3    82  LEU82       0.0001
     98  CD2      -17.3480   74.1770   74.7580 C.3    82  LEU82       0.0001
     99  N        -19.0400   72.7300   71.0410 N.am   83  LEU83      -0.1963
    100  CA       -18.3850   71.8410   70.0960 C.3    83  LEU83       0.1728
    101  C        -16.9830   72.3160   69.8150 C.2    83  LEU83       0.2616
    102  O        -16.6600   73.4810   70.0360 O.2    83  LEU83      -0.2715
    103  CB       -19.1770   71.7490   68.7890 C.3    83  LEU83       0.0311
    104  CG       -20.4810   70.9490   68.8560 C.3    83  LEU83       0.0022
    105  CD1      -21.1750   70.9790   67.5190 C.3    83  LEU83       0.0001
    106  CD2      -20.1850   69.5410   69.2550 C.3    83  LEU83       0.0001
    107  N        -16.1590   71.4020   69.3160 N.am   84  GLY84      -0.1955
    108  CA       -14.7730   71.7090   69.0130 C.3    84  GLY84       0.1869
    109  C        -14.5280   72.6810   67.8820 C.2    84  GLY84       0.2309
    110  O        -15.4670   73.2520   67.3210 O.2    84  GLY84      -0.2863
    111  N        -13.7360   74.4960   64.2640 N.3    86  SER86      -0.1217
    112  CA       -14.3530   74.3350   62.9450 C.3    86  SER86       0.1889
    113  C        -13.3640   73.7990   61.9210 C.2    86  SER86       0.2288
    114  O        -12.1720   74.1040   61.9680 O.2    86  SER86      -0.2866
    115  CB       -14.9280   75.6690   62.4450 C.3    86  SER86       0.2089
    116  OG       -13.9410   76.4680   61.8280 O.3    86  SER86      -0.2183
    117  N        -20.1330   75.9870   53.8080 N.3   128  LYS128     -0.1245
    118  CA       -18.7670   76.4540   53.9500 C.3   128  LYS128      0.1561
    119  C        -18.1630   75.6350   55.0760 C.2   128  LYS128      0.2260
    120  O        -18.8680   75.2420   56.0020 O.2   128  LYS128     -0.2867
    121  CB       -18.7280   77.9410   54.2910 C.3   128  LYS128      0.0271
    122  CG       -19.5410   78.3310   55.5050 C.3   128  LYS128      0.0035
    123  CD       -19.4610   79.8220   55.7550 C.3   128  LYS128      0.0206
    124  CE       -19.8770   80.6060   54.5260 C.3   128  LYS128      0.1093
    125  NZ       -19.9310   82.0640   54.8270 N.3   128  LYS128     -0.1314
    126  N        -16.4680   76.4530   57.4620 N.3   130  ASP130     -0.1225
    127  CA       -16.5410   77.1650   58.7380 C.3   130  ASP130      0.1805
    128  C        -17.7660   76.7290   59.5370 C.2   130  ASP130      0.2597
    129  O        -17.8610   76.9950   60.7370 O.2   130  ASP130     -0.2718
    130  CB       -16.6440   78.6680   58.5020 C.3   130  ASP130      0.1424
    131  CG       -15.9160   79.1180   57.2600 C.2   130  ASP130      0.3668
    132  OD1      -15.9070   78.3720   56.2560 O.co2 130  ASP130     -0.2456
    133  OD2      -15.3680   80.2400   57.2740 O.co2 130  ASP130     -0.2456
    134  N        -18.7000   76.0690   58.8550 N.am  131  ASN131     -0.1974
    135  CA       -19.9390   75.6060   59.4660 C.3   131  ASN131      0.1688
    136  C        -19.8810   74.1750   59.9750 C.2   131  ASN131      0.2292
    137  O        -20.8560   73.6860   60.5390 O.2   131  ASN131     -0.2864
    138  CB       -21.0940   75.7280   58.4710 C.3   131  ASN131      0.1181
    139  CG       -21.4570   77.1730   58.1590 C.2   131  ASN131      0.2629
    140  OD1      -20.6910   78.1000   58.4350 O.2   131  ASN131     -0.2716
    141  ND2      -22.6310   77.3680   57.5640 N.am  131  ASN131     -0.0877
    142  N        -18.1770   71.5340   62.5260 N.3   133  LEU133     -0.1245
    143  CA       -17.4150   71.4640   63.7500 C.3   133  LEU133      0.1561
    144  C        -17.2220   70.0340   64.1450 C.2   133  LEU133      0.2260
    145  O        -17.8890   69.1560   63.6350 O.2   133  LEU133     -0.2867
    146  CB       -18.1830   72.1710   64.8540 C.3   133  LEU133      0.0270
    147  CG       -18.6530   73.5720   64.4870 C.3   133  LEU133      0.0019
    148  CD1      -19.6840   74.1040   65.4830 C.3   133  LEU133      0.0001
    149  CD2      -17.4360   74.4270   64.4330 C.3   133  LEU133      0.0001
    150  N        -23.7190   73.3410   61.7670 N.3   148  VAL148     -0.1231
    151  CA       -24.1890   74.3880   62.6480 C.3   148  VAL148      0.1692
    152  C        -24.6240   75.6020   61.8410 C.2   148  VAL148      0.2592
    153  O        -24.1670   75.8170   60.7190 O.2   148  VAL148     -0.2718
    154  CB       -23.1120   74.7870   63.6820 C.3   148  VAL148      0.0266
    155  CG1      -23.0680   73.7720   64.8010 C.3   148  VAL148      0.0020
    156  CG2      -21.7680   74.8540   63.0220 C.3   148  VAL148      0.0020
    157  N        -25.5300   76.3800   62.4230 N.am  149  ASP149     -0.1974
    158  CA       -26.0610   77.5700   61.7790 C.3   149  ASP149      0.1709
    159  C        -26.9620   77.1390   60.6240 C.2   149  ASP149      0.2293
    160  O        -26.4840   76.6750   59.5900 O.2   149  ASP149     -0.2864
    161  CB       -24.9270   78.4450   61.2460 C.3   149  ASP149      0.1436
    162  CG       -25.4250   79.7550   60.6930 C.2   149  ASP149      0.3671
    163  OD1      -26.4770   79.7580   60.0220 O.co2 149  ASP149     -0.2456
    164  OD2      -24.7640   80.7860   60.9190 O.co2 149  ASP149     -0.2456
@<TRIPOS>BOND
     1   117   118    1
     2   118   121    1
     3   118   119    1
     4   121   122    1
     5   124   125    1
     6   124   123    1
     7   119   120    2
     8   122   123    1
     9   132   131   ar
    10   131   133   ar
    11   131   130    1
    12   126   127    1
    13   141   139   am
    14    30    31    1
    15    30    27    1
    16   139   140    2
    17   139   138    1
    18   138   135    1
    19   130   127    1
    20   127   128    1
    21   134   135    1
    22   134   128   am
    23    27    28    1
    24    27    26    1
    25   135   136    1
    26   128   129    2
    27   160   159    2
    28    29    28    2
    29   136   137    2
    30   163   162   ar
    31    26    24   am
    32   159   158    1
    33   162   164   ar
    34   162   161    1
    35   153   152    2
    36   161   158    1
    37    24    25    2
    38    24    23    1
    39   150   151    1
    40   158   157    1
    41   116   115    1
    42   152   157   am
    43   152   151    1
    44   113   114    2
    45   113   112    1
    46   115   112    1
    47    21    19   ar
    48   142   143    1
    49    23    22    1
    50   151   154    1
    51   112   111    1
    52   156   154    1
    53    19    20   ar
    54    19    18    1
    55    54    55    1
    56    55    58    1
    57    55    56    1
    58    18    17    1
    59   145   144    2
    60    61    60   ar
    61    59    58    1
    62    59    60    1
    63   154   155    1
    64    16    15    2
    65    22    15   am
    66   143   144    1
    67   143   146    1
    68    60    62   ar
    69    15    14    1
    70    57    56    2
    71   149   147    1
    72   147   146    1
    73   147   148    1
    74    63    64    1
    75    53    52    1
    76    17    14    1
    77    74    73    1
    78    64    65    1
    79    64    67    1
    80    14    13    1
    81    73    72   ar
    82    73    71   ar
    83    72    70   ar
    84    52    51    1
    85    71    69   ar
    86    70    68   ar
    87    13    11   am
    88    65    66    2
    89    69    68   ar
    90    68    67    1
    91    39    37    1
    92    51    50    1
    93    11    10    1
    94    11    12    2
    95   110   109    2
    96   105   104    1
    97    10     9    1
    98    37    36    1
    99   109   108    1
   100    50    49    1
   101    82    80    1
   102     4     3    2
   103   103   104    1
   104   103   100    1
   105   104   106    1
   106    36    33    1
   107    36    38    1
   108     9     3   am
   109   108   107    1
   110    32    33    1
   111   107   101   am
   112    49    46    1
   113     3     2    1
   114    81    79    1
   115    33    34    1
   116   101   102    2
   117   101   100    1
   118    80    79    1
   119   100    99    1
   120    79    76    1
   121    46    47    1
   122    46    45    1
   123    35    34    2
   124    47    48    2
   125     2     5    1
   126     2     1    1
   127     6     5    1
   128     6     8    1
   129    99    93   am
   130     5     7    1
   131    86    85    2
   132    90    88   ar
   133    93    94    2
   134    93    92    1
   135    44    41    1
   136    76    77    1
   137    76    75    1
   138    87    88    1
   139    87    84    1
   140    83    77   am
   141    83    84    1
   142    85    84    1
   143    85    91   am
   144    77    78    2
   145    88    89   ar
   146    92    91    1
   147    92    95    1
   148    41    42    1
   149    41    40    1
   150    43    42    2
   151    96    97    1
   152    96    95    1
   153    96    98    1
