@<TRIPOS>MOLECULE
tmp/1eh5A02.pdb
 168 160 0 0 0
SMALL
GASTEIGER

@<TRIPOS>ATOM
      1  N         39.6620   16.4700   56.6950 N.3    13  GLY13      -0.1210
      2  CA        39.6300   15.0550   56.9930 C.3    13  GLY13       0.1956
      3  C         38.2760   14.5240   57.4220 C.2    13  GLY13       0.2611
      4  O         37.2580   15.2170   57.3230 O.2    13  GLY13      -0.2717
      5  N         38.2790   13.2810   57.8950 N.am   14  MET14      -0.1979
      6  CA        37.0830   12.5940   58.3770 C.3    14  MET14       0.1605
      7  C         36.4220   13.3520   59.5320 C.2    14  MET14       0.2287
      8  O         37.0950   13.7630   60.4850 O.2    14  MET14      -0.2864
      9  CB        37.4560   11.1900   58.8650 C.3    14  MET14       0.0413
     10  CG        36.2990   10.3670   59.4150 C.3    14  MET14       0.0598
     11  SD        36.8600    8.9300   60.3960 S.3    14  MET14      -0.1393
     12  CE        37.4390    7.9370   59.1320 C.3    14  MET14       0.0692
     13  N         44.5550   14.4110   57.0440 N.3    88  SER88      -0.1202
     14  CA        44.1430   13.0250   57.2900 C.3    88  SER88       0.2020
     15  C         43.7910   12.3560   55.9670 C.2    88  SER88       0.2618
     16  O         44.5890   12.3620   55.0460 O.2    88  SER88      -0.2717
     17  CB        42.9170   12.8860   58.2010 C.3    88  SER88       0.2103
     18  OG        42.6940   11.4830   58.3870 O.3    88  SER88      -0.2182
     19  N         42.5900   11.7910   55.8670 N.am   89  GLN89      -0.1979
     20  CA        42.1990   11.1040   54.6490 C.3    89  GLN89       0.1601
     21  C         42.2290   12.0180   53.4520 C.2    89  GLN89       0.2287
     22  O         42.3880   11.5520   52.3300 O.2    89  GLN89      -0.2864
     23  CB        40.8130   10.4620   54.7830 C.3    89  GLN89       0.0394
     24  CG        39.6850   11.4000   55.2030 C.3    89  GLN89       0.0908
     25  CD        38.3640   10.6680   55.3820 C.2    89  GLN89       0.2608
     26  OE1       38.3340    9.4990   55.7770 O.2    89  GLN89      -0.2717
     27  NE2       37.2630   11.3580   55.1110 N.am   89  GLN89      -0.0878
     28  N         46.9080    8.6940   54.8910 N.3   115  GLN115     -0.1245
     29  CA        47.1040    7.2390   54.9310 C.3   115  GLN115      0.1566
     30  C         47.2370    6.7300   53.4850 C.2   115  GLN115      0.2260
     31  O         46.2700    6.2250   52.8920 O.2   115  GLN115     -0.2867
     32  CB        45.9020    6.5700   55.6250 C.3   115  GLN115      0.0367
     33  CG        45.5340    7.1390   57.0210 C.3   115  GLN115      0.0905
     34  CD        44.6800    8.4060   56.9570 C.2   115  GLN115      0.2608
     35  OE1       43.6050    8.4100   56.3630 O.2   115  GLN115     -0.2717
     36  NE2       45.1580    9.4850   57.5800 N.am  115  GLN115     -0.0878
     37  N         44.7670    1.7680   56.0170 N.3   119  VAL119     -0.1245
     38  CA        44.8730    1.4340   57.4330 C.3   119  VAL119      0.1561
     39  C         44.4410   -0.0130   57.7000 C.2   119  VAL119      0.2260
     40  O         43.7370   -0.6160   56.8900 O.2   119  VAL119     -0.2867
     41  CB        43.9710    2.3720   58.2790 C.3   119  VAL119      0.0252
     42  CG1       44.3760    3.8220   58.0780 C.3   119  VAL119      0.0019
     43  CG2       42.5150    2.1750   57.8960 C.3   119  VAL119      0.0019
     44  N         43.5360   -1.3200   61.3720 N.3   121  GLY121     -0.1210
     45  CA        43.4290   -1.2200   62.8140 C.3   121  GLY121      0.1956
     46  C         42.5440   -0.0470   63.2100 C.2   121  GLY121      0.2612
     47  O         42.4190    0.9330   62.4680 O.2   121  GLY121     -0.2717
     48  N         41.9290   -0.1390   64.3880 N.am  122  LEU122     -0.1966
     49  CA        41.0460    0.9150   64.8720 C.3   122  LEU122      0.1713
     50  C         41.7710    1.8780   65.8130 C.2   122  LEU122      0.2458
     51  O         42.6530    1.4760   66.5750 O.2   122  LEU122     -0.2730
     52  CB        39.8250    0.2940   65.5670 C.3   122  LEU122      0.0310
     53  CG        38.8770   -0.5190   64.6600 C.3   122  LEU122      0.0022
     54  CD1       37.8080   -1.1870   65.4890 C.3   122  LEU122      0.0001
     55  CD2       38.2210    0.3940   63.6250 C.3   122  LEU122      0.0001
     56  N         41.4110    3.1740   65.7550 N.am  123  PRO123     -0.2727
     57  CA        41.9860    4.2510   66.5730 C.3   123  PRO123      0.1402
     58  C         42.1750    3.8780   68.0450 C.2   123  PRO123      0.2269
     59  O         41.2390    3.4390   68.7050 O.2   123  PRO123     -0.2865
     60  CB        40.9890    5.3880   66.3830 C.3   123  PRO123      0.0296
     61  CG        40.5620    5.1970   64.9580 C.3   123  PRO123      0.0237
     62  CD        40.3560    3.7000   64.8660 C.3   123  PRO123      0.0939
     63  N         36.7820   -8.1900   60.1540 N.3   140  LEU140     -0.1245
     64  CA        36.1370   -7.1340   59.3810 C.3   140  LEU140      0.1561
     65  C         36.5510   -7.3420   57.9420 C.2   140  LEU140      0.2260
     66  O         35.7970   -7.0510   57.0190 O.2   140  LEU140     -0.2867
     67  CB        36.5930   -5.7460   59.8280 C.3   140  LEU140      0.0270
     68  CG        36.2220   -5.2980   61.2360 C.3   140  LEU140      0.0019
     69  CD1       36.4790   -3.8020   61.3660 C.3   140  LEU140      0.0001
     70  CD2       34.7540   -5.6130   61.5090 C.3   140  LEU140      0.0001
     71  N         34.2410   -8.7440   55.7710 N.3   143  GLY143     -0.1210
     72  CA        33.1080   -8.0400   55.1980 C.3   143  GLY143      0.1956
     73  C         33.4210   -6.7240   54.5120 C.2   143  GLY143      0.2611
     74  O         32.7190   -6.3250   53.5780 O.2   143  GLY143     -0.2717
     75  N         34.4730   -6.0520   54.9680 N.am  144  ALA144     -0.1979
     76  CA        34.8770   -4.7650   54.4070 C.3   144  ALA144      0.1597
     77  C         34.9630   -4.7350   52.8800 C.2   144  ALA144      0.2287
     78  O         34.9390   -3.6610   52.2830 O.2   144  ALA144     -0.2864
     79  CB        36.2130   -4.3370   55.0050 C.3   144  ALA144      0.0319
     80  N         29.1550   -2.8260   51.0700 N.3   149  ILE149     -0.1245
     81  CA        29.9080   -2.0700   52.0680 C.3   149  ILE149      0.1561
     82  C         30.8760   -1.0720   51.4260 C.2   149  ILE149      0.2260
     83  O         30.9510    0.0840   51.8400 O.2   149  ILE149     -0.2867
     84  CB        30.7120   -3.0140   53.0090 C.3   149  ILE149      0.0252
     85  CG1       29.7570   -3.7890   53.9150 C.3   149  ILE149      0.0019
     86  CG2       31.6820   -2.2060   53.8650 C.3   149  ILE149      0.0019
     87  CD1       28.9620   -2.9090   54.8550 C.3   149  ILE149      0.0001
     88  N         30.7000    2.9440   52.5730 N.3   153  LEU153     -0.1245
     89  CA        31.5770    3.3090   53.6710 C.3   153  LEU153      0.1561
     90  C         32.9110    3.8370   53.1850 C.2   153  LEU153      0.2260
     91  O         33.7060    3.1080   52.5860 O.2   153  LEU153     -0.2867
     92  CB        31.8060    2.1140   54.5880 C.3   153  LEU153      0.0270
     93  CG        30.9670    2.1360   55.8610 C.3   153  LEU153      0.0019
     94  CD1       31.2730    0.9030   56.7000 C.3   153  LEU153      0.0001
     95  CD2       31.2770    3.4100   56.6380 C.3   153  LEU153      0.0001
     96  N         35.5970    4.7960   54.9430 N.3   155  GLN155     -0.1231
     97  CA        36.7110    4.1480   55.6210 C.3   155  GLN155      0.1698
     98  C         37.0210    2.7770   55.0460 C.2   155  GLN155      0.2592
     99  O         38.1800    2.3780   54.9750 O.2   155  GLN155     -0.2718
    100  CB        36.4250    4.0240   57.1150 C.3   155  GLN155      0.0381
    101  CG        36.4220    5.3530   57.8270 C.3   155  GLN155      0.0905
    102  CD        35.3580    6.3030   57.2930 C.2   155  GLN155      0.2608
    103  OE1       34.1650    5.9830   57.3010 O.2   155  GLN155     -0.2717
    104  NE2       35.7830    7.4770   56.8300 N.am  155  GLN155     -0.0878
    105  N         35.9830    2.0640   54.6310 N.am  156  ALA156     -0.1980
    106  CA        36.1490    0.7390   54.0450 C.3   156  ALA156      0.1597
    107  C         36.9330    0.8270   52.7300 C.2   156  ALA156      0.2287
    108  O         37.6920   -0.0820   52.3950 O.2   156  ALA156     -0.2864
    109  CB        34.7850    0.1030   53.7960 C.3   156  ALA156      0.0319
    110  N         39.4880    2.4450   52.0270 N.3   158  TYR158     -0.1227
    111  CA        40.9390    2.4970   52.1930 C.3   158  TYR158      0.1736
    112  C         41.4190    1.5820   53.3240 C.2   158  TYR158      0.2595
    113  O         42.4840    1.7820   53.9150 O.2   158  TYR158     -0.2718
    114  CB        41.4750    3.9420   52.3500 C.3   158  TYR158      0.0548
    115  CG        41.0230    4.7790   53.5380 C.ar  158  TYR158     -0.0200
    116  CD1       41.6410    4.6670   54.7850 C.ar  158  TYR158     -0.0009
    117  CD2       40.0370    5.7630   53.3810 C.ar  158  TYR158     -0.0009
    118  CE1       41.2940    5.5180   55.8380 C.ar  158  TYR158      0.0417
    119  CE2       39.6870    6.6100   54.4200 C.ar  158  TYR158      0.0417
    120  CZ        40.3200    6.4880   55.6430 C.ar  158  TYR158      0.1957
    121  OH        39.9890    7.3690   56.6460 O.3   158  TYR158     -0.2866
    122  N         40.6090    0.5620   53.6030 N.am  159  TRP159     -0.1976
    123  CA        40.9390   -0.4500   54.5960 C.3   159  TRP159      0.1640
    124  C         41.8350   -1.3870   53.8010 C.2   159  TRP159      0.2290
    125  O         41.4510   -1.8730   52.7360 O.2   159  TRP159     -0.2864
    126  CB        39.6780   -1.1760   55.0680 C.3   159  TRP159      0.0576
    127  CG        39.9360   -2.2560   56.0810 C.ar  159  TRP159      0.0006
    128  CD1       40.0580   -3.5920   55.8370 C.ar  159  TRP159      0.0946
    129  CD2       40.0900   -2.0900   57.5010 C.ar  159  TRP159      0.0152
    130  NE1       40.2740   -4.2720   57.0130 N.ar  159  TRP159     -0.2442
    131  CE2       40.2990   -3.3770   58.0500 C.ar  159  TRP159      0.0810
    132  CE3       40.0680   -0.9820   58.3610 C.ar  159  TRP159      0.0012
    133  CZ2       40.4840   -3.5900   59.4240 C.ar  159  TRP159      0.0191
    134  CZ3       40.2510   -1.1900   59.7260 C.ar  159  TRP159      0.0001
    135  CH2       40.4570   -2.4900   60.2440 C.ar  159  TRP159      0.0015
    136  N         46.0280    7.2650   66.1640 N.3   208  ILE208     -0.1231
    137  CA        44.7900    7.1260   65.4090 C.3   208  ILE208      0.1692
    138  C         44.9890    6.3680   64.1020 C.2   208  ILE208      0.2591
    139  O         44.1040    5.6220   63.6630 O.2   208  ILE208     -0.2718
    140  CB        44.1950    8.5090   65.0430 C.3   208  ILE208      0.0266
    141  CG1       44.0010    9.3710   66.2980 C.3   208  ILE208      0.0019
    142  CG2       42.8830    8.3190   64.2970 C.3   208  ILE208      0.0020
    143  CD1       42.9850    8.8220   67.2810 C.3   208  ILE208      0.0001
    144  N         46.1400    6.5790   63.4670 N.am  209  VAL209     -0.1980
    145  CA        46.4340    5.9210   62.2000 C.3   209  VAL209      0.1595
    146  C         47.2900    4.6790   62.4020 C.2   209  VAL209      0.2287
    147  O         48.4680    4.7760   62.7540 O.2   209  VAL209     -0.2864
    148  CB        47.1840    6.8670   61.2310 C.3   209  VAL209      0.0276
    149  CG1       47.4540    6.1450   59.9160 C.3   209  VAL209      0.0022
    150  CG2       46.3770    8.1350   61.0090 C.3   209  VAL209      0.0022
    151  N         47.8360   12.4700   66.3090 N.3   262  HIS262     -0.1226
    152  CA        47.2330   12.8320   65.0300 C.3   262  HIS262      0.1752
    153  C         46.8240   14.2950   64.8520 C.2   262  HIS262      0.2595
    154  O         46.1230   14.8710   65.6840 O.2   262  HIS262     -0.2718
    155  CB        46.0260   11.9370   64.7520 C.3   262  HIS262      0.0759
    156  CG        45.6370   11.8910   63.3100 C.ar  262  HIS262      0.0818
    157  ND1       46.5310   11.5680   62.3120 N.ar  262  HIS262     -0.2268
    158  CD2       44.4520   12.1100   62.6950 C.ar  262  HIS262      0.1154
    159  CE1       45.9150   11.5890   61.1450 C.ar  262  HIS262      0.1986
    160  NE2       44.6520   11.9150   61.3490 N.ar  262  HIS262     -0.2212
    161  N         47.2660   14.8830   63.7420 N.am  263  LEU263     -0.1980
    162  CA        46.9590   16.2680   63.4140 C.3   263  LEU263      0.1596
    163  C         47.2220   17.2460   64.5670 C.2   263  LEU263      0.2287
    164  O         46.4620   18.1900   64.7920 O.2   263  LEU263     -0.2864
    165  CB        45.5050   16.3680   62.9560 C.3   263  LEU263      0.0297
    166  CG        45.1780   15.5160   61.7270 C.3   263  LEU263      0.0022
    167  CD1       43.6780   15.5440   61.4490 C.3   263  LEU263      0.0001
    168  CD2       45.9630   16.0360   60.5350 C.3   263  LEU263      0.0001
@<TRIPOS>BOND
     1    80    81    1
     2    82    83    2
     3    82    81    1
     4   110   111    1
     5    81    84    1
     6   111   114    1
     7   111   112    1
     8    78    77    2
     9    22    21    2
    10   114   115    1
    11   108   107    2
    12    88    89    1
    13    91    90    2
    14   107   106    1
    15   125   124    2
    16    77    76    1
    17    31    30    2
    18    84    86    1
    19    84    85    1
    20    90    89    1
    21   112   122   am
    22   112   113    2
    23   117   115   ar
    24   117   119   ar
    25    21    20    1
    26    30    29    1
    27   115   116   ar
    28    74    73    2
    29   122   123    1
    30    89    92    1
    31   109   106    1
    32   124   123    1
    33    85    87    1
    34   106   105    1
    35    76    75    1
    36    76    79    1
    37   119   120   ar
    38    73    75   am
    39    73    72    1
    40    92    93    1
    41   123   126    1
    42   105    98   am
    43    20    23    1
    44    20    19    1
    45    23    24    1
    46   116   118   ar
    47    28    29    1
    48    29    32    1
    49    96    97    1
    50    99    98    2
    51    16    15    2
    52    98    97    1
    53   126   127    1
    54    27    25   am
    55    72    71    1
    56    24    25    1
    57    25    26    2
    58    97   100    1
    59    32    33    1
    60   120   118   ar
    61   120   121    1
    62   128   127   ar
    63   128   130   ar
    64    93    95    1
    65    93    94    1
    66    19    15   am
    67    15    14    1
    68    37    38    1
    69   127   129   ar
    70    35    34    2
    71     1     2    1
    72   104   102   am
    73    40    39    2
    74    34    33    1
    75    34    36   am
    76     2     3    1
    77   130   131   ar
    78    66    65    2
    79    13    14    1
    80   100   101    1
    81    14    17    1
    82   102   103    2
    83   102   101    1
    84     4     3    2
    85     3     5   am
    86    38    39    1
    87    38    41    1
    88   129   131   ar
    89   129   132   ar
    90     5     6    1
    91    43    41    1
    92    65    64    1
    93   131   133   ar
    94    42    41    1
    95    17    18    1
    96   132   134   ar
    97     6     9    1
    98     6     7    1
    99     9    10    1
   100    12    11    1
   101    64    67    1
   102    64    63    1
   103    10    11    1
   104   133   135   ar
   105     7     8    2
   106   134   135   ar
   107    67    68    1
   108   149   148    1
   109   168   166    1
   110   150   148    1
   111   159   160   ar
   112   159   157   ar
   113   148   145    1
   114    68    69    1
   115    68    70    1
   116   160   158   ar
   117    44    45    1
   118   167   166    1
   119   166   165    1
   120   145   146    1
   121   145   144    1
   122   157   156   ar
   123   146   147    2
   124    47    46    2
   125   158   156   ar
   126    45    46    1
   127   165   162    1
   128    46    48   am
   129   156   155    1
   130   162   161    1
   131   162   163    1
   132   144   138   am
   133    55    53    1
   134   139   138    2
   135   161   153   am
   136   138   137    1
   137   142   140    1
   138    48    49    1
   139   163   164    2
   140    53    54    1
   141    53    52    1
   142   155   152    1
   143   153   152    1
   144   153   154    2
   145    62    61    1
   146    62    56    1
   147    49    52    1
   148    49    50    1
   149    61    60    1
   150   152   151    1
   151   140   137    1
   152   140   141    1
   153   137   136    1
   154    56    50   am
   155    56    57    1
   156    50    51    2
   157   141   143    1
   158    60    57    1
   159    57    58    1
   160    58    59    2
