@<TRIPOS>MOLECULE
tmp/1ehiA00.pdb
 189 178 0 0 0
SMALL
GASTEIGER

@<TRIPOS>ATOM
      1  N         37.8760    7.3730   64.9880 N.3   134  LYS134     -0.1245
      2  CA        39.2290    7.9310   64.9760 C.3   134  LYS134      0.1561
      3  C         40.0520    7.4910   66.1800 C.2   134  LYS134      0.2260
      4  O         41.2480    7.2250   66.0550 O.2   134  LYS134     -0.2867
      5  CB        39.1480    9.4620   64.9700 C.3   134  LYS134      0.0271
      6  CG        39.7730   10.1920   63.7780 C.3   134  LYS134      0.0035
      7  CD        39.1420    9.8050   62.4600 C.3   134  LYS134      0.0206
      8  CE        38.9890   11.0090   61.5100 C.3   134  LYS134      0.1093
      9  NZ        37.7750   11.8620   61.7940 N.3   134  LYS134     -0.1314
     10  N         50.2520   10.5310   65.1740 N.3   149  THR149     -0.1218
     11  CA        50.3640   11.7180   66.0200 C.3   149  THR149      0.1862
     12  C         50.0010   11.5360   67.4870 C.2   149  THR149      0.2287
     13  O         49.2240   10.6460   67.8610 O.2   149  THR149     -0.2866
     14  CB        49.4940   12.8820   65.4930 C.3   149  THR149      0.1770
     15  OG1       48.1330   12.4410   65.3760 O.3   149  THR149     -0.2211
     16  CG2       50.0000   13.3840   64.1450 C.3   149  THR149      0.0375
     17  N         45.0160   19.9690   66.1210 N.3   176  PHE176     -0.1241
     18  CA        43.8230   19.6630   65.3310 C.3   176  PHE176      0.1605
     19  C         42.7650   19.0440   66.2400 C.2   176  PHE176      0.2264
     20  O         43.0620   18.1510   67.0430 O.2   176  PHE176     -0.2867
     21  CB        44.1360   18.7350   64.1550 C.3   176  PHE176      0.0534
     22  CG        44.6280   19.4620   62.9360 C.ar  176  PHE176     -0.0203
     23  CD1       45.9680   19.8370   62.8230 C.ar  176  PHE176     -0.0042
     24  CD2       43.7530   19.7780   61.8990 C.ar  176  PHE176     -0.0042
     25  CE1       46.4360   20.5170   61.6880 C.ar  176  PHE176     -0.0003
     26  CE2       44.1980   20.4580   60.7560 C.ar  176  PHE176     -0.0003
     27  CZ        45.5470   20.8280   60.6490 C.ar  176  PHE176     -0.0000
     28  N         39.0590   17.2360   66.3290 N.3   178  LYS178     -0.1245
     29  CA        38.1200   16.5420   65.4700 C.3   178  LYS178      0.1561
     30  C         37.1750   15.5590   66.1600 C.2   178  LYS178      0.2260
     31  O         37.4990   14.9730   67.2040 O.2   178  LYS178     -0.2867
     32  CB        38.9020   15.8250   64.3660 C.3   178  LYS178      0.0271
     33  CG        40.0350   14.9670   64.9020 C.3   178  LYS178      0.0035
     34  CD        40.8240   14.2850   63.7990 C.3   178  LYS178      0.0206
     35  CE        41.6520   15.2720   63.0060 C.3   178  LYS178      0.1093
     36  NZ        42.8630   14.6060   62.4360 N.3   178  LYS178     -0.1314
     37  N         33.5730   10.7340   61.8710 N.3   182  GLN182     -0.1231
     38  CA        33.2340   11.6190   60.7430 C.3   182  GLN182      0.1698
     39  C         34.1770   11.4840   59.5220 C.2   182  GLN182      0.2593
     40  O         35.1070   10.6690   59.5260 O.2   182  GLN182     -0.2718
     41  CB        33.2220   13.0790   61.2080 C.3   182  GLN182      0.0381
     42  CG        31.8490   13.6230   61.5920 C.3   182  GLN182      0.0905
     43  CD        30.9140   13.7760   60.3970 C.2   182  GLN182      0.2608
     44  OE1       31.2580   13.4140   59.2650 O.2   182  GLN182     -0.2717
     45  NE2       29.7270   14.3250   60.6420 N.am  182  GLN182     -0.0878
     46  N         33.9320   12.2890   58.4840 N.am  183  GLY183     -0.1942
     47  CA        34.7630   12.2490   57.2870 C.3   183  GLY183      0.2014
     48  C         34.7260   13.5280   56.4590 C.2   183  GLY183      0.2640
     49  O         34.0120   14.4670   56.8120 O.2   183  GLY183     -0.2714
     50  N         35.5040   13.5650   55.3700 N.am  184  SER184     -0.1935
     51  CA        35.5930   14.7190   54.4550 C.3   184  SER184      0.2055
     52  C         36.0100   16.0580   55.0720 C.2   184  SER184      0.2643
     53  O         35.8510   17.1150   54.4470 O.2   184  SER184     -0.2714
     54  CB        34.2870   14.9010   53.6840 C.3   184  SER184      0.2130
     55  OG        34.2100   13.9890   52.6070 O.3   184  SER184     -0.2179
     56  N         36.5550   15.9960   56.2860 N.am  185  SER185     -0.1949
     57  CA        37.0200   17.1580   57.0420 C.3   185  SER185      0.1924
     58  C         35.9270   17.9820   57.7100 C.2   185  SER185      0.2314
     59  O         36.1320   19.1480   58.0480 O.2   185  SER185     -0.2863
     60  CB        37.9390   18.0430   56.1960 C.3   185  SER185      0.2116
     61  OG        39.1910   17.4100   55.9860 O.3   185  SER185     -0.2180
     62  N         36.0920   19.1540   61.8730 N.3   188  ILE188     -0.1245
     63  CA        37.5360   19.3090   62.1090 C.3   188  ILE188      0.1561
     64  C         38.0060   20.7710   61.9940 C.2   188  ILE188      0.2260
     65  O         37.5610   21.5110   61.1090 O.2   188  ILE188     -0.2867
     66  CB        38.3610   18.4570   61.1010 C.3   188  ILE188      0.0252
     67  CG1       37.9970   16.9750   61.2380 C.3   188  ILE188      0.0019
     68  CG2       39.8610   18.6540   61.3440 C.3   188  ILE188      0.0019
     69  CD1       38.7370   16.0630   60.2870 C.3   188  ILE188      0.0001
     70  N         44.7580   16.3170   68.6560 N.3   214  GLU214     -0.1231
     71  CA        46.0810   15.8370   68.2630 C.3   214  GLU214      0.1699
     72  C         47.0320   16.9190   67.7590 C.2   214  GLU214      0.2592
     73  O         46.6100   17.8870   67.1270 O.2   214  GLU214     -0.2718
     74  CB        45.9280   14.7440   67.2020 C.3   214  GLU214      0.0402
     75  CG        45.0760   15.1510   66.0200 C.3   214  GLU214      0.1161
     76  CD        44.8350   14.0180   65.0420 C.2   214  GLU214      0.3649
     77  OE1       45.5960   13.9020   64.0670 O.co2 214  GLU214     -0.2457
     78  OE2       43.8720   13.2530   65.2330 O.co2 214  GLU214     -0.2457
     79  N         48.3230   16.7380   68.0190 N.am  215  GLU215     -0.1966
     80  CA        49.3180   17.7130   67.5820 C.3   215  GLU215      0.1733
     81  C         49.4350   17.7880   66.0630 C.2   215  GLU215      0.2616
     82  O         49.2650   16.7890   65.3590 O.2   215  GLU215     -0.2715
     83  CB        50.6850   17.4150   68.1890 C.3   215  GLU215      0.0429
     84  CG        51.3020   16.1150   67.7290 C.3   215  GLU215      0.1163
     85  CD        52.7650   15.9860   68.1160 C.2   215  GLU215      0.3649
     86  OE1       53.2490   16.7730   68.9700 O.co2 215  GLU215     -0.2457
     87  OE2       53.4280   15.0890   67.5490 O.co2 215  GLU215     -0.2457
     88  N         49.7080   18.9850   65.5610 N.am  216  ALA216     -0.1963
     89  CA        49.8330   19.1740   64.1340 C.3   216  ALA216      0.1728
     90  C         51.2260   18.8290   63.6300 C.2   216  ALA216      0.2616
     91  O         52.2290   19.1250   64.2770 O.2   216  ALA216     -0.2715
     92  CB        49.4820   20.6090   63.7690 C.3   216  ALA216      0.0334
     93  N         51.2780   18.1340   62.5050 N.am  217  VAL217     -0.1977
     94  CA        52.5460   17.7990   61.8860 C.3   217  VAL217      0.1596
     95  C         52.7680   18.9180   60.8710 C.2   217  VAL217      0.2287
     96  O         51.9410   19.1460   59.9890 O.2   217  VAL217     -0.2864
     97  CB        52.5030   16.4110   61.2200 C.3   217  VAL217      0.0276
     98  CG1       53.6440   16.2550   60.2330 C.3   217  VAL217      0.0022
     99  CG2       52.6260   15.3470   62.2880 C.3   217  VAL217      0.0022
    100  N         50.8430   15.7700   52.1080 N.3   222  GLU222     -0.1245
    101  CA        50.2040   14.5410   52.5600 C.3   222  GLU222      0.1567
    102  C         50.3320   13.4290   51.5320 C.2   222  GLU222      0.2260
    103  O         50.4440   13.6900   50.3370 O.2   222  GLU222     -0.2867
    104  CB        48.7300   14.8010   52.8400 C.3   222  GLU222      0.0388
    105  CG        48.4880   15.8280   53.9190 C.3   222  GLU222      0.1160
    106  CD        47.0200   16.1060   54.1150 C.2   222  GLU222      0.3649
    107  OE1       46.5410   17.1430   53.6020 O.co2 222  GLU222     -0.2457
    108  OE2       46.3450   15.2820   54.7720 O.co2 222  GLU222     -0.2457
    109  N         50.5580   25.1420   53.0780 N.3   246  GLN246     -0.1245
    110  CA        50.3630   24.0070   53.9800 C.3   246  GLN246      0.1566
    111  C         51.4440   23.9240   55.0680 C.2   246  GLN246      0.2260
    112  O         51.1350   23.9730   56.2630 O.2   246  GLN246     -0.2867
    113  CB        50.2500   22.6860   53.1970 C.3   246  GLN246      0.0367
    114  CG        49.8370   21.4910   54.0730 C.3   246  GLN246      0.0905
    115  CD        49.0980   20.3880   53.3220 C.2   246  GLN246      0.2608
    116  OE1       49.1580   20.2920   52.0930 O.2   246  GLN246     -0.2717
    117  NE2       48.3930   19.5440   54.0740 N.am  246  GLN246     -0.0878
    118  N         45.4050   23.7600   54.8630 N.3   252  TRP252     -0.1227
    119  CA        45.2160   22.3250   55.0870 C.3   252  TRP252      0.1737
    120  C         44.0970   21.7810   54.1860 C.2   252  TRP252      0.2595
    121  O         43.3420   22.5580   53.5940 O.2   252  TRP252     -0.2718
    122  CB        44.9500   22.0140   56.5800 C.3   252  TRP252      0.0564
    123  CG        43.7310   22.6810   57.1910 C.ar  252  TRP252      0.0003
    124  CD1       43.5880   24.0020   57.5010 C.ar  252  TRP252      0.0946
    125  CD2       42.4960   22.0470   57.5610 C.ar  252  TRP252      0.0152
    126  NE1       42.3430   24.2330   58.0350 N.ar  252  TRP252     -0.2442
    127  CE2       41.6520   23.0510   58.0850 C.ar  252  TRP252      0.0810
    128  CE3       42.0210   20.7290   57.4980 C.ar  252  TRP252      0.0012
    129  CZ2       40.3530   22.7810   58.5440 C.ar  252  TRP252      0.0191
    130  CZ3       40.7260   20.4590   57.9540 C.ar  252  TRP252      0.0001
    131  CH2       39.9100   21.4830   58.4700 C.ar  252  TRP252      0.0015
    132  N         44.0070   20.4550   54.0750 N.am  253  TYR253     -0.1976
    133  CA        43.0070   19.8010   53.2250 C.3   253  TYR253      0.1639
    134  C         41.6090   19.7350   53.8550 C.2   253  TYR253      0.2290
    135  O         41.1470   18.6580   54.2460 O.2   253  TYR253     -0.2864
    136  CB        43.4870   18.3890   52.8560 C.3   253  TYR253      0.0560
    137  CG        43.1680   17.9390   51.4370 C.ar  253  TYR253     -0.0198
    138  CD1       42.9580   18.8650   50.4130 C.ar  253  TYR253     -0.0009
    139  CD2       43.1260   16.5790   51.1100 C.ar  253  TYR253     -0.0009
    140  CE1       42.7230   18.4470   49.0930 C.ar  253  TYR253      0.0417
    141  CE2       42.8910   16.1510   49.7970 C.ar  253  TYR253      0.0417
    142  CZ        42.6940   17.0900   48.7970 C.ar  253  TYR253      0.1957
    143  OH        42.4910   16.6750   47.5040 O.3   253  TYR253     -0.2866
    144  N         38.9290   20.1020   49.0640 N.3   258  LYS258     -0.1245
    145  CA        38.6960   18.7800   48.4760 C.3   258  LYS258      0.1561
    146  C         37.5450   18.7510   47.4730 C.2   258  LYS258      0.2260
    147  O         37.6870   18.2540   46.3480 O.2   258  LYS258     -0.2867
    148  CB        38.3530   17.7460   49.5640 C.3   258  LYS258      0.0271
    149  CG        39.3740   17.5200   50.6620 C.3   258  LYS258      0.0035
    150  CD        38.8460   16.4890   51.6580 C.3   258  LYS258      0.0206
    151  CE        39.8140   16.2610   52.8100 C.3   258  LYS258      0.1093
    152  NZ        39.3280   15.2410   53.7800 N.3   258  LYS258     -0.1314
    153  N         45.9720    7.1130   54.4410 N.3   301  ASP301     -0.1239
    154  CA        46.5040    8.4710   54.3340 C.3   301  ASP301      0.1674
    155  C         47.6050    8.7300   55.3700 C.2   301  ASP301      0.2266
    156  O         47.4940    8.3160   56.5350 O.2   301  ASP301     -0.2867
    157  CB        45.3850    9.5010   54.5110 C.3   301  ASP301      0.1410
    158  CG        44.2700    9.3660   53.4700 C.2   301  ASP301      0.3668
    159  OD1       44.4040    8.5830   52.5040 O.co2 301  ASP301     -0.2456
    160  OD2       43.2480   10.0660   53.6280 O.co2 301  ASP301     -0.2456
    161  N         50.7170   11.5600   57.0400 N.3   303  LEU303     -0.1245
    162  CA        51.1730   12.9140   57.2950 C.3   303  LEU303      0.1561
    163  C         52.6940   12.8020   57.3070 C.2   303  LEU303      0.2260
    164  O         53.2470   11.8250   57.8240 O.2   303  LEU303     -0.2867
    165  CB        50.6480   13.4090   58.6450 C.3   303  LEU303      0.0270
    166  CG        49.1340   13.6560   58.7430 C.3   303  LEU303      0.0019
    167  CD1       48.7710   13.9660   60.1830 C.3   303  LEU303      0.0001
    168  CD2       48.6890   14.7920   57.8180 C.3   303  LEU303      0.0001
    169  N         48.0110    8.7880   59.1490 N.3   313  GLY313     -0.1210
    170  CA        46.9810    9.7370   59.5070 C.3   313  GLY313      0.1956
    171  C         45.6690    9.0470   59.7860 C.2   313  GLY313      0.2611
    172  O         45.2180    8.9880   60.9260 O.2   313  GLY313     -0.2717
    173  N         45.1110    8.4220   58.7600 N.am  314  GLU314     -0.1979
    174  CA        43.8250    7.7750   58.9110 C.3   314  GLU314      0.1602
    175  C         43.4960    6.8240   57.7630 C.2   314  GLU314      0.2287
    176  O         44.0040    6.9840   56.6530 O.2   314  GLU314     -0.2864
    177  CB        42.7620    8.8770   58.9680 C.3   314  GLU314      0.0415
    178  CG        41.4320    8.4840   58.4100 C.3   314  GLU314      0.1163
    179  CD        40.7170    9.6320   57.7760 C.2   314  GLU314      0.3649
    180  OE1       39.7130   10.0760   58.3600 O.co2 314  GLU314     -0.2457
    181  OE2       41.1510   10.0900   56.6990 O.co2 314  GLU314     -0.2457
    182  N         40.6300    4.7740   55.2510 N.3   316  ASN316     -0.1240
    183  CA        39.3440    5.0550   54.6060 C.3   316  ASN316      0.1653
    184  C         38.8560    3.7850   53.9070 C.2   316  ASN316      0.2266
    185  O         39.3020    3.4510   52.8140 O.2   316  ASN316     -0.2867
    186  CB        39.4640    6.2120   53.6170 C.3   316  ASN316      0.1155
    187  CG        39.8800    7.5120   54.2950 C.2   316  ASN316      0.2627
    188  OD1       39.0730    8.1560   54.9660 O.2   316  ASN316     -0.2716
    189  ND2       41.1530    7.8870   54.1470 N.am  316  ASN316     -0.0877
@<TRIPOS>BOND
     1   147   146    2
     2   146   145    1
     3   143   142    1
     4   145   144    1
     5   145   148    1
     6   142   140   ar
     7   142   141   ar
     8   140   138   ar
     9   148   149    1
    10   141   139   ar
    11   103   102    2
    12   138   137   ar
    13   149   150    1
    14   139   137   ar
    15   137   136    1
    16   102   101    1
    17   150   151    1
    18   116   115    2
    19   100   101    1
    20   159   158   ar
    21   101   104    1
    22    55    54    1
    23   151   152    1
    24   185   184    2
    25   104   105    1
    26   136   133    1
    27   109   110    1
    28   113   110    1
    29   113   114    1
    30   133   134    1
    31   133   132    1
    32   115   114    1
    33   115   117   am
    34   158   160   ar
    35   158   157    1
    36   121   120    2
    37   107   106   ar
    38   186   187    1
    39   186   183    1
    40    54    51    1
    41   134   135    2
    42   184   183    1
    43   105   106    1
    44   110   111    1
    45   132   120   am
    46   106   108   ar
    47   189   187   am
    48   120   119    1
    49   187   188    2
    50   154   153    1
    51   154   157    1
    52   154   155    1
    53    53    52    2
    54    51    52    1
    55    51    50    1
    56   183   182    1
    57   118   119    1
    58   111   112    2
    59    52    56   am
    60   119   122    1
    61    50    48   am
    62   155   156    2
    63    61    60    1
    64    60    57    1
    65    56    57    1
    66    48    49    2
    67    48    47    1
    68   122   123    1
    69   176   175    2
    70   181   179   ar
    71   161   162    1
    72    57    58    1
    73   123   124   ar
    74   123   125   ar
    75    47    46    1
    76   162   163    1
    77   162   165    1
    78   163   164    2
    79   128   125   ar
    80   128   130   ar
    81   124   126   ar
    82   125   127   ar
    83    58    59    2
    84   175   174    1
    85   179   180   ar
    86   179   178    1
    87   168   166    1
    88   130   131   ar
    89   126   127   ar
    90   127   129   ar
    91   178   177    1
    92   131   129   ar
    93    46    39   am
    94   165   166    1
    95   166   167    1
    96   173   174    1
    97   173   171   am
    98   174   177    1
    99   169   170    1
   100    44    43    2
   101   170   171    1
   102    39    40    2
   103    39    38    1
   104   171   172    2
   105    96    95    2
   106    98    97    1
   107    69    67    1
   108    43    45   am
   109    43    42    1
   110    27    26   ar
   111    27    25   ar
   112    38    41    1
   113    38    37    1
   114    26    24   ar
   115    95    94    1
   116    66    67    1
   117    66    68    1
   118    66    63    1
   119    65    64    2
   120    41    42    1
   121    97    94    1
   122    97    99    1
   123     8     9    1
   124     8     7    1
   125    25    23   ar
   126    62    63    1
   127    94    93    1
   128    24    22   ar
   129    64    63    1
   130    36    35    1
   131     7     6    1
   132    93    90   am
   133    23    22   ar
   134    22    21    1
   135    35    34    1
   136    90    89    1
   137    90    91    2
   138    92    89    1
   139     6     5    1
   140    34    33    1
   141    77    76   ar
   142    89    88    1
   143    16    14    1
   144    21    18    1
   145    32    33    1
   146    32    29    1
   147     5     2    1
   148     2     1    1
   149     2     3    1
   150    76    78   ar
   151    76    75    1
   152    10    11    1
   153    18    17    1
   154    18    19    1
   155    82    81    2
   156    15    14    1
   157    29    30    1
   158    29    28    1
   159    14    11    1
   160    88    81   am
   161    11    12    1
   162    75    74    1
   163     4     3    2
   164    81    80    1
   165    30    31    2
   166    19    20    2
   167    73    72    2
   168    74    71    1
   169    12    13    2
   170    87    85   ar
   171    80    79    1
   172    80    83    1
   173    84    85    1
   174    84    83    1
   175    72    79   am
   176    72    71    1
   177    85    86   ar
   178    71    70    1
