@<TRIPOS>MOLECULE
tmp/1ehiA01.pdb
 170 159 0 0 0
SMALL
GASTEIGER

@<TRIPOS>ATOM
      1  N         28.7390   13.3820   53.8550 N.3    14  GLU14      -0.1245
      2  CA        29.4340   13.1510   52.5890 C.3    14  GLU14       0.1567
      3  C         28.4680   12.6530   51.5200 C.2    14  GLU14       0.2260
      4  O         28.8820   12.0550   50.5240 O.2    14  GLU14      -0.2867
      5  CB        30.5660   12.1410   52.8020 C.3    14  GLU14       0.0388
      6  CG        31.4850   12.5210   53.9550 C.3    14  GLU14       0.1160
      7  CD        32.5970   11.5200   54.1890 C.2    14  GLU14       0.3649
      8  OE1       32.5900   10.8550   55.2460 O.co2  14  GLU14      -0.2457
      9  OE2       33.4920   11.4110   53.3260 O.co2  14  GLU14      -0.2457
     10  N         29.2260   13.7820   47.8440 N.3    17  VAL17      -0.1245
     11  CA        30.4690   13.1990   47.3250 C.3    17  VAL17       0.1561
     12  C         30.1250   11.8160   46.7510 C.2    17  VAL17       0.2260
     13  O         30.5960   11.4550   45.6650 O.2    17  VAL17      -0.2867
     14  CB        31.5310   13.0230   48.4570 C.3    17  VAL17       0.0252
     15  CG1       32.8400   12.4880   47.8880 C.3    17  VAL17       0.0019
     16  CG2       31.7660   14.3400   49.1860 C.3    17  VAL17       0.0019
     17  N         29.2750    7.0290   51.3690 N.3   100  HIS100     -0.1241
     18  CA        30.3380    7.5100   52.2700 C.3   100  HIS100      0.1621
     19  C         29.7860    8.0520   53.5930 C.2   100  HIS100      0.2264
     20  O         28.7100    8.6760   53.6330 O.2   100  HIS100     -0.2867
     21  CB        31.1750    8.6330   51.6140 C.3   100  HIS100      0.0745
     22  CG        31.7690    8.2730   50.2840 C.ar  100  HIS100      0.0817
     23  ND1       32.5870    7.1790   50.0990 N.ar  100  HIS100     -0.2268
     24  CD2       31.6670    8.8750   49.0740 C.ar  100  HIS100      0.1154
     25  CE1       32.9620    7.1210   48.8330 C.ar  100  HIS100      0.1986
     26  NE2       32.4180    8.1380   48.1890 N.ar  100  HIS100     -0.2212
     27  N         30.4370    3.3000   56.0260 N.3   105  GLU105     -0.1245
     28  CA        31.7470    3.1540   56.6620 C.3   105  GLU105      0.1567
     29  C         31.7530    2.9060   58.1650 C.2   105  GLU105      0.2260
     30  O         32.8230    2.7320   58.7580 O.2   105  GLU105     -0.2867
     31  CB        32.6430    4.3520   56.3370 C.3   105  GLU105      0.0388
     32  CG        33.0940    4.4320   54.8770 C.3   105  GLU105      0.1160
     33  CD        34.1320    5.5210   54.6440 C.2   105  GLU105      0.3649
     34  OE1       35.3230    5.1850   54.4450 O.co2 105  GLU105     -0.2457
     35  OE2       33.7540    6.7140   54.6660 O.co2 105  GLU105     -0.2457
     36  N         33.9320   12.2890   58.4840 N.3   183  GLY183     -0.1210
     37  CA        34.7630   12.2490   57.2870 C.3   183  GLY183      0.1956
     38  C         34.7260   13.5280   56.4590 C.2   183  GLY183      0.2612
     39  O         34.0120   14.4670   56.8120 O.2   183  GLY183     -0.2717
     40  N         35.5040   13.5650   55.3700 N.am  184  SER184     -0.1952
     41  CA        35.5930   14.7190   54.4550 C.3   184  SER184      0.1924
     42  C         36.0100   16.0580   55.0720 C.2   184  SER184      0.2314
     43  O         35.8510   17.1150   54.4470 O.2   184  SER184     -0.2863
     44  CB        34.2870   14.9010   53.6840 C.3   184  SER184      0.2116
     45  OG        34.2100   13.9890   52.6070 O.3   184  SER184     -0.2180
     46  N         48.9220    9.4110   50.1250 N.3   224  GLU224     -0.1245
     47  CA        47.8040    8.4800   50.0370 C.3   224  GLU224      0.1567
     48  C         48.2210    7.2260   49.2650 C.2   224  GLU224      0.2260
     49  O         48.8780    7.3090   48.2220 O.2   224  GLU224     -0.2867
     50  CB        46.5860    9.1490   49.3980 C.3   224  GLU224      0.0388
     51  CG        45.9680   10.2420   50.2810 C.3   224  GLU224      0.1160
     52  CD        44.8150   10.9970   49.6210 C.2   224  GLU224      0.3649
     53  OE1       44.2240   10.4740   48.6550 O.co2 224  GLU224     -0.2457
     54  OE2       44.4950   12.1170   50.0760 O.co2 224  GLU224     -0.2457
     55  N         44.0070   20.4550   54.0750 N.3   253  TYR253     -0.1241
     56  CA        43.0070   19.8010   53.2250 C.3   253  TYR253      0.1605
     57  C         41.6090   19.7350   53.8550 C.2   253  TYR253      0.2264
     58  O         41.1470   18.6580   54.2460 O.2   253  TYR253     -0.2867
     59  CB        43.4870   18.3890   52.8560 C.3   253  TYR253      0.0534
     60  CG        43.1680   17.9390   51.4370 C.ar  253  TYR253     -0.0201
     61  CD1       42.9580   18.8650   50.4130 C.ar  253  TYR253     -0.0009
     62  CD2       43.1260   16.5790   51.1100 C.ar  253  TYR253     -0.0009
     63  CE1       42.7230   18.4470   49.0930 C.ar  253  TYR253      0.0417
     64  CE2       42.8910   16.1510   49.7970 C.ar  253  TYR253      0.0417
     65  CZ        42.6940   17.0900   48.7970 C.ar  253  TYR253      0.1957
     66  OH        42.4910   16.6750   47.5040 O.3   253  TYR253     -0.2866
     67  N         38.9290   20.1020   49.0640 N.3   258  LYS258     -0.1231
     68  CA        38.6960   18.7800   48.4760 C.3   258  LYS258      0.1693
     69  C         37.5450   18.7510   47.4730 C.2   258  LYS258      0.2592
     70  O         37.6870   18.2540   46.3480 O.2   258  LYS258     -0.2718
     71  CB        38.3530   17.7460   49.5640 C.3   258  LYS258      0.0285
     72  CG        39.3740   17.5200   50.6620 C.3   258  LYS258      0.0035
     73  CD        38.8460   16.4890   51.6580 C.3   258  LYS258      0.0206
     74  CE        39.8140   16.2610   52.8100 C.3   258  LYS258      0.1093
     75  NZ        39.3280   15.2410   53.7800 N.3   258  LYS258     -0.1314
     76  N         36.4000   19.2830   47.8950 N.am  259  PHE259     -0.1976
     77  CA        35.1990   19.2420   47.0740 C.3   259  PHE259      0.1639
     78  C         34.6130   20.5440   46.5380 C.2   259  PHE259      0.2290
     79  O         33.9580   20.5310   45.5000 O.2   259  PHE259     -0.2864
     80  CB        34.1360   18.4380   47.8210 C.3   259  PHE259      0.0560
     81  CG        34.6220   17.0800   48.2870 C.ar  259  PHE259     -0.0200
     82  CD1       34.9470   16.0840   47.3640 C.ar  259  PHE259     -0.0042
     83  CD2       34.7370   16.7940   49.6460 C.ar  259  PHE259     -0.0042
     84  CE1       35.3710   14.8290   47.7860 C.ar  259  PHE259     -0.0003
     85  CE2       35.1630   15.5360   50.0810 C.ar  259  PHE259     -0.0003
     86  CZ        35.4790   14.5530   49.1510 C.ar  259  PHE259     -0.0000
     87  N         42.0860    2.8250   51.4910 N.3   299  ARG299     -0.1245
     88  CA        43.0780    3.8320   51.1570 C.3   299  ARG299      0.1563
     89  C         43.6360    4.3820   52.4730 C.2   299  ARG299      0.2260
     90  O         42.8810    4.8240   53.3360 O.2   299  ARG299     -0.2867
     91  CB        42.4770    4.9660   50.3320 C.3   299  ARG299      0.0307
     92  CG        43.5330    5.7770   49.5880 C.3   299  ARG299      0.0489
     93  CD        42.9910    7.0930   49.0680 C.3   299  ARG299      0.2205
     94  NE        42.6300    7.9920   50.1610 N.pl3 299  ARG299     -0.0865
     95  CZ        41.4720    8.6400   50.2610 C.cat 299  ARG299      0.5346
     96  NH1       40.5410    8.4930   49.3300 N.pl3 299  ARG299      0.1354
     97  NH2       41.2450    9.4470   51.2920 N.pl3 299  ARG299      0.1354
     98  N         45.9720    7.1130   54.4410 N.3   301  ASP301     -0.1239
     99  CA        46.5040    8.4710   54.3340 C.3   301  ASP301      0.1674
    100  C         47.6050    8.7300   55.3700 C.2   301  ASP301      0.2266
    101  O         47.4940    8.3160   56.5350 O.2   301  ASP301     -0.2867
    102  CB        45.3850    9.5010   54.5110 C.3   301  ASP301      0.1410
    103  CG        44.2700    9.3660   53.4700 C.2   301  ASP301      0.3668
    104  OD1       44.4040    8.5830   52.5040 O.co2 301  ASP301     -0.2456
    105  OD2       43.2480   10.0660   53.6280 O.co2 301  ASP301     -0.2456
    106  N         45.1110    8.4220   58.7600 N.3   314  GLU314     -0.1245
    107  CA        43.8250    7.7750   58.9110 C.3   314  GLU314      0.1567
    108  C         43.4960    6.8240   57.7630 C.2   314  GLU314      0.2260
    109  O         44.0040    6.9840   56.6530 O.2   314  GLU314     -0.2867
    110  CB        42.7620    8.8770   58.9680 C.3   314  GLU314      0.0388
    111  CG        41.4320    8.4840   58.4100 C.3   314  GLU314      0.1160
    112  CD        40.7170    9.6320   57.7760 C.2   314  GLU314      0.3649
    113  OE1       39.7130   10.0760   58.3600 O.co2 314  GLU314     -0.2457
    114  OE2       41.1510   10.0900   56.6990 O.co2 314  GLU314     -0.2457
    115  N         40.6300    4.7740   55.2510 N.3   316  ASN316     -0.1240
    116  CA        39.3440    5.0550   54.6060 C.3   316  ASN316      0.1653
    117  C         38.8560    3.7850   53.9070 C.2   316  ASN316      0.2266
    118  O         39.3020    3.4510   52.8140 O.2   316  ASN316     -0.2867
    119  CB        39.4640    6.2120   53.6170 C.3   316  ASN316      0.1155
    120  CG        39.8800    7.5120   54.2950 C.2   316  ASN316      0.2627
    121  OD1       39.0730    8.1560   54.9660 O.2   316  ASN316     -0.2716
    122  ND2       41.1530    7.8870   54.1470 N.am  316  ASN316     -0.0877
    123  N         35.9060    2.9450   52.4890 N.3   318  LEU318     -0.1231
    124  CA        35.1500    3.0800   51.2440 C.3   318  LEU318      0.1678
    125  C         35.6390    4.4020   50.6590 C.2   318  LEU318      0.2434
    126  O         34.9060    5.3980   50.6180 O.2   318  LEU318     -0.2733
    127  CB        33.6350    3.1180   51.4880 C.3   318  LEU318      0.0284
    128  CG        32.9210    1.8120   51.8590 C.3   318  LEU318      0.0019
    129  CD1       31.4620    2.0880   52.1780 C.3   318  LEU318      0.0001
    130  CD2       33.0360    0.8050   50.7240 C.3   318  LEU318      0.0001
    131  N         36.9100    4.4260   50.2070 N.am  319  PRO319     -0.2718
    132  CA        37.5470    5.6080   49.6220 C.3   319  PRO319      0.1535
    133  C         36.7660    6.2350   48.4800 C.2   319  PRO319      0.2599
    134  O         35.9840    5.5620   47.8070 O.2   319  PRO319     -0.2715
    135  CB        38.8960    5.0660   49.1560 C.3   319  PRO319      0.0310
    136  CG        38.6080    3.6130   48.8810 C.3   319  PRO319      0.0237
    137  CD        37.7840    3.2460   50.0620 C.3   319  PRO319      0.0939
    138  N         36.9700    7.5370   48.2980 N.am  320  GLY320     -0.1955
    139  CA        36.3020    8.2760   47.2430 C.3   320  GLY320      0.1869
    140  C         36.6960    7.7560   45.8810 C.2   320  GLY320      0.2309
    141  O         37.7280    7.0950   45.7350 O.2   320  GLY320     -0.2863
    142  N         35.8980    9.8870   42.8500 N.3   322  THR322     -0.1218
    143  CA        35.5530   10.9830   41.9530 C.3   322  THR322      0.1862
    144  C         36.7310   11.3420   41.0290 C.2   322  THR322      0.2287
    145  O         37.8250   10.7850   41.1530 O.2   322  THR322     -0.2866
    146  CB        35.0420   12.2260   42.7360 C.3   322  THR322      0.1770
    147  OG1       35.2320   13.4090   41.9510 O.3   322  THR322     -0.2211
    148  CG2       35.7380   12.3790   44.0710 C.3   322  THR322      0.0375
    149  N         38.7980   13.6270   41.0180 N.3   324  MET324     -0.1230
    150  CA        39.9710   14.2250   41.6530 C.3   324  MET324      0.1702
    151  C         40.4420   13.2980   42.7770 C.2   324  MET324      0.2593
    152  O         41.3640   13.6160   43.5340 O.2   324  MET324     -0.2718
    153  CB        39.6730   15.6410   42.1700 C.3   324  MET324      0.0401
    154  CG        38.6580   15.7530   43.3040 C.3   324  MET324      0.0596
    155  SD        39.3670   15.5570   44.9630 S.3   324  MET324     -0.1393
    156  CE        38.2080   14.4340   45.6720 C.3   324  MET324      0.0692
    157  N         39.7990   12.1360   42.8620 N.am  325  SER325     -0.1938
    158  CA        40.1270   11.1420   43.8730 C.3   325  SER325      0.2055
    159  C         41.3290   10.3280   43.4400 C.2   325  SER325      0.2642
    160  O         41.4220    9.8960   42.2900 O.2   325  SER325     -0.2714
    161  CB        38.9410   10.2010   44.1320 C.3   325  SER325      0.2130
    162  OG        37.9380   10.8150   44.9230 O.3   325  SER325     -0.2179
    163  N         42.2310   10.1050   44.3850 N.am  326  LEU326     -0.1977
    164  CA        43.4380    9.3490   44.1250 C.3   326  LEU326      0.1596
    165  C         43.1750    7.8480   43.9360 C.2   326  LEU326      0.2287
    166  O         43.8580    7.1980   43.1420 O.2   326  LEU326     -0.2864
    167  CB        44.4650    9.6270   45.2350 C.3   326  LEU326      0.0297
    168  CG        45.7640   10.3760   44.8640 C.3   326  LEU326      0.0022
    169  CD1       45.5910   11.2290   43.6180 C.3   326  LEU326      0.0001
    170  CD2       46.2670   11.2170   46.0310 C.3   326  LEU326      0.0001
@<TRIPOS>BOND
     1   149   150    1
     2   144   145    2
     3   144   143    1
     4   150   153    1
     5   150   151    1
     6   147   146    1
     7   143   146    1
     8   143   142    1
     9   153   154    1
    10   160   159    2
    11   146   148    1
    12   151   157   am
    13   151   152    2
    14   157   158    1
    15   166   165    2
    16   154   155    1
    17   159   158    1
    18   159   163   am
    19   169   168    1
    20   158   161    1
    21   165   164    1
    22   164   163    1
    23   164   167    1
    24   161   162    1
    25   168   167    1
    26   168   170    1
    27   155   156    1
    28    79    78    2
    29    13    12    2
    30   141   140    2
    31   140   139    1
    32    70    69    2
    33    78    77    1
    34    12    11    1
    35    77    80    1
    36    77    76    1
    37   139   138    1
    38    11    10    1
    39    11    14    1
    40    82    84   ar
    41    82    81   ar
    42    69    76   am
    43    69    68    1
    44    66    65    1
    45    84    86   ar
    46   134   133    2
    47    80    81    1
    48    15    14    1
    49    26    25   ar
    50    26    24   ar
    51    49    48    2
    52    81    83   ar
    53   138   133   am
    54    14    16    1
    55    68    67    1
    56    68    71    1
    57   133   132    1
    58    53    52   ar
    59    65    63   ar
    60    65    64   ar
    61    25    23   ar
    62   136   135    1
    63   136   137    1
    64    93    92    1
    65    93    94    1
    66    24    22   ar
    67    63    61   ar
    68    86    85   ar
    69   135   132    1
    70    48    47    1
    71    96    95    1
    72    50    47    1
    73    50    51    1
    74    71    72    1
    75    92    91    1
    76    52    54   ar
    77    52    51    1
    78   132   131    1
    79    83    85   ar
    80    64    62   ar
    81    47    46    1
    82   137   131    1
    83    23    22   ar
    84    94    95    2
    85   131   125   am
    86    95    97    1
    87    22    21    1
    88    91    88    1
    89    61    60   ar
    90     4     3    2
    91   126   125    2
    92   125   124    1
    93    72    73    1
    94   130   128    1
    95    62    60   ar
    96    88    87    1
    97    88    89    1
    98   124   127    1
    99   124   123    1
   100    17    18    1
   101    60    59    1
   102   127   128    1
   103     3     2    1
   104    21    18    1
   105    73    74    1
   106   128   129    1
   107    18    19    1
   108    89    90    2
   109   104   103   ar
   110     2     5    1
   111     2     1    1
   112    45    44    1
   113     5     6    1
   114    74    75    1
   115   118   117    2
   116    59    56    1
   117    56    57    1
   118    56    55    1
   119     9     7   ar
   120   103   105   ar
   121   103   102    1
   122    19    20    2
   123   119   120    1
   124   119   116    1
   125    44    41    1
   126    57    58    2
   127   117   116    1
   128     6     7    1
   129   122   120   am
   130     7     8   ar
   131   120   121    2
   132    99    98    1
   133    99   102    1
   134    99   100    1
   135    34    33   ar
   136    43    42    2
   137    41    42    1
   138    41    40    1
   139   116   115    1
   140    33    35   ar
   141    33    32    1
   142    32    31    1
   143   100   101    2
   144    40    38   am
   145    27    28    1
   146    31    28    1
   147    38    39    2
   148    38    37    1
   149   109   108    2
   150    28    29    1
   151   114   112   ar
   152    37    36    1
   153   108   107    1
   154   112   113   ar
   155   112   111    1
   156    29    30    2
   157   111   110    1
   158   106   107    1
   159   107   110    1
