@<TRIPOS>MOLECULE
tmp/1ehlC00.pdb
 101 101 0 0 0
SMALL
GASTEIGER

@<TRIPOS>ATOM
      1  N         -6.4260   47.0220   16.0100 N.3    31  SER31      -0.1202
      2  CA        -6.7010   48.4570   16.1100 C.3    31  SER31       0.2020
      3  C         -5.4640   49.3320   16.1170 C.2    31  SER31       0.2619
      4  O         -5.5470   50.5440   16.3470 O.2    31  SER31      -0.2717
      5  CB        -7.5440   48.7700   17.3530 C.3    31  SER31       0.2103
      6  OG        -8.3430   47.6620   17.7330 O.3    31  SER31      -0.2182
      7  N         -4.3050   48.7340   15.8820 N.am   32  PHE32      -0.1961
      8  CA        -3.0630   49.5210   15.8730 C.3    32  PHE32       0.1771
      9  C         -2.1870   49.1680   14.7210 C.2    32  PHE32       0.2619
     10  O         -2.2550   48.0340   14.2060 O.2    32  PHE32      -0.2715
     11  CB        -2.2570   49.2710   17.1440 C.3    32  PHE32       0.0574
     12  CG        -3.0000   49.5850   18.3760 C.ar   32  PHE32      -0.0200
     13  CD1       -2.9940   50.8760   18.8880 C.ar   32  PHE32      -0.0042
     14  CD2       -3.7910   48.6180   18.9760 C.ar   32  PHE32      -0.0042
     15  CE1       -3.7720   51.2010   19.9800 C.ar   32  PHE32      -0.0003
     16  CE2       -4.5720   48.9250   20.0700 C.ar   32  PHE32      -0.0003
     17  CZ        -4.5690   50.2200   20.5750 C.ar   32  PHE32      -0.0000
     18  N         -1.3720   50.1460   14.3330 N.am   33  TRP33      -0.1974
     19  CA        -0.4020   49.9810   13.2440 C.3    33  TRP33       0.1640
     20  C          0.9070   49.3630   13.7790 C.2    33  TRP33       0.2290
     21  O          1.4940   49.8720   14.7240 O.2    33  TRP33      -0.2864
     22  CB        -0.0820   51.3250   12.5860 C.3    33  TRP33       0.0576
     23  CG        -1.1580   51.9260   11.7780 C.ar   33  TRP33       0.0006
     24  CD1       -2.1210   52.7970   12.2070 C.ar   33  TRP33       0.0946
     25  CD2       -1.3260   51.8100   10.3530 C.ar   33  TRP33       0.0152
     26  NE1       -2.8670   53.2460   11.1360 N.ar   33  TRP33      -0.2442
     27  CE2       -2.4020   52.6560    9.9890 C.ar   33  TRP33       0.0810
     28  CE3       -0.6670   51.0800    9.3490 C.ar   33  TRP33       0.0012
     29  CZ2       -2.8280   52.7930    8.6610 C.ar   33  TRP33       0.0191
     30  CZ3       -1.0930   51.2190    8.0230 C.ar   33  TRP33       0.0001
     31  CH2       -2.1600   52.0690    7.6950 C.ar   33  TRP33       0.0015
     32  N          4.6730   48.5640   13.2030 N.3    35  HIS35      -0.1241
     33  CA         5.7840   49.0340   12.4110 C.3    35  HIS35       0.1621
     34  C          6.9730   48.0890   12.4810 C.2    35  HIS35       0.2264
     35  O          7.0800   47.2730   13.3930 O.2    35  HIS35      -0.2867
     36  CB         6.1790   50.4090   12.8530 C.3    35  HIS35       0.0745
     37  CG         5.0890   51.4150   12.6860 C.ar   35  HIS35       0.0817
     38  ND1        5.2120   52.5200   11.8680 N.ar   35  HIS35      -0.2268
     39  CD2        3.8570   51.4760   13.2280 C.ar   35  HIS35       0.1154
     40  CE1        4.0900   53.2150   11.9090 C.ar   35  HIS35       0.1986
     41  NE2        3.2510   52.6020   12.7280 N.ar   35  HIS35      -0.2212
     42  N         13.4860   52.8840    9.2070 N.3    47  TRP47      -0.1241
     43  CA        12.0710   52.4910    9.1260 C.3    47  TRP47       0.1605
     44  C         11.7790   51.6750    7.8430 C.2    47  TRP47       0.2264
     45  O         12.0300   52.1460    6.7350 O.2    47  TRP47      -0.2867
     46  CB        11.1610   53.7230    9.1830 C.3    47  TRP47       0.0550
     47  CG         9.6830   53.3990    9.1960 C.ar   47  TRP47       0.0003
     48  CD1        8.9630   52.9420   10.2450 C.ar   47  TRP47       0.0946
     49  CD2        8.7550   53.5440    8.1070 C.ar   47  TRP47       0.0152
     50  NE1        7.6450   52.7940    9.8930 N.ar   47  TRP47      -0.2442
     51  CE2        7.4910   53.1520    8.5830 C.ar   47  TRP47       0.0810
     52  CE3        8.8740   53.9770    6.7800 C.ar   47  TRP47       0.0012
     53  CZ2        6.3390   53.1730    7.7730 C.ar   47  TRP47       0.0191
     54  CZ3        7.7270   54.0040    5.9740 C.ar   47  TRP47       0.0001
     55  CH2        6.4780   53.6030    6.4740 C.ar   47  TRP47       0.0015
     56  N          4.8810   49.6400    7.6230 N.3    50  THR50      -0.1218
     57  CA         3.8420   49.4850    8.6350 C.3    50  THR50       0.1862
     58  C          2.5150   48.8800    8.1360 C.2    50  THR50       0.2287
     59  O          2.0410   49.2380    7.0720 O.2    50  THR50      -0.2866
     60  CB         3.5270   50.8310    9.2500 C.3    50  THR50       0.1770
     61  OG1        2.4560   50.6850   10.1750 O.3    50  THR50      -0.2211
     62  CG2        3.1640   51.8010    8.2350 C.3    50  THR50       0.0375
     63  N          2.1640   50.4210    4.3700 N.3    59  SER59      -0.1217
     64  CA         2.8890   51.6220    3.9270 C.3    59  SER59       0.1889
     65  C          4.3850   51.2970    3.9790 C.2    59  SER59       0.2288
     66  O          4.9240   50.9510    5.0290 O.2    59  SER59      -0.2866
     67  CB         2.5650   52.8360    4.7750 C.3    59  SER59       0.2089
     68  OG         3.3150   53.9510    4.3280 O.3    59  SER59      -0.2183
     69  N          2.5590   51.3080   17.1860 N.3    99  ARG99      -0.1231
     70  CA         2.2650   52.7470   17.1850 C.3    99  ARG99       0.1694
     71  C          1.0020   52.9300   18.0610 C.2    99  ARG99       0.2593
     72  O         -0.0930   52.5500   17.6890 O.2    99  ARG99      -0.2718
     73  CB         1.9990   53.2240   15.7560 C.3    99  ARG99       0.0321
     74  CG         1.8850   54.7220   15.5860 C.3    99  ARG99       0.0489
     75  CD         3.2430   55.4040   15.7910 C.3    99  ARG99       0.2205
     76  NE         3.1300   56.8610   15.7900 N.pl3  99  ARG99      -0.0865
     77  CZ         4.1830   57.6550   15.7180 C.cat  99  ARG99       0.5346
     78  NH1        5.3590   57.0740   15.6140 N.pl3  99  ARG99       0.1354
     79  NH2        4.0790   58.9780   15.8360 N.pl3  99  ARG99       0.1354
     80  N          1.1740   53.4520   19.2580 N.am  100  SER100     -0.1938
     81  CA         0.0610   53.6030   20.1390 C.3   100  SER100      0.2055
     82  C         -0.8490   54.6680   19.6130 C.2   100  SER100      0.2643
     83  O         -0.4160   55.5950   18.9320 O.2   100  SER100     -0.2714
     84  CB         0.5110   53.9610   21.5600 C.3   100  SER100      0.2130
     85  OG         0.1930   55.3240   21.8670 O.3   100  SER100     -0.2179
     86  N         -2.1190   54.5320   19.9830 N.am  101  GLY101     -0.1954
     87  CA        -3.1100   55.4990   19.5860 C.3   101  GLY101      0.1869
     88  C         -3.0860   56.6220   20.5920 C.2   101  GLY101      0.2309
     89  O         -2.0280   57.2220   20.8200 O.2   101  GLY101     -0.2863
     90  N          0.7600   58.2340   20.9120 N.3   105  TYR105     -0.1241
     91  CA         0.9310   58.4010   19.4530 C.3   105  TYR105      0.1605
     92  C          2.4030   58.2290   19.1540 C.2   105  TYR105      0.2264
     93  O          3.0620   59.1920   18.7380 O.2   105  TYR105     -0.2867
     94  CB         0.5200   59.8240   19.0290 C.3   105  TYR105      0.0534
     95  CG        -0.8890   60.1740   19.3800 C.ar  105  TYR105     -0.0201
     96  CD1       -1.9560   59.6010   18.7050 C.ar  105  TYR105     -0.0009
     97  CD2       -1.1560   61.0450   20.4190 C.ar  105  TYR105     -0.0009
     98  CE1       -3.2500   59.8790   19.0610 C.ar  105  TYR105      0.0417
     99  CE2       -2.4430   61.3350   20.7940 C.ar  105  TYR105      0.0417
    100  CZ        -3.4990   60.7490   20.1160 C.ar  105  TYR105      0.1957
    101  OH        -4.8040   60.9980   20.5230 O.3   105  TYR105     -0.2866
@<TRIPOS>BOND
     1    64    65    1
     2    64    63    1
     3    64    67    1
     4    65    66    2
     5    68    67    1
     6    54    55   ar
     7    54    52   ar
     8    55    53   ar
     9    45    44    2
    10    52    49   ar
    11    59    58    2
    12    56    57    1
    13    31    30   ar
    14    31    29   ar
    15    53    51   ar
    16    44    43    1
    17    30    28   ar
    18    49    51   ar
    19    49    47   ar
    20    58    57    1
    21    62    60    1
    22    51    50   ar
    23    57    60    1
    24    29    27   ar
    25    43    46    1
    26    43    42    1
    27    46    47    1
    28    47    48   ar
    29    60    61    1
    30    28    25   ar
    31    50    48   ar
    32    27    25   ar
    33    27    26   ar
    34    25    23   ar
    35    26    24   ar
    36    23    24   ar
    37    23    22    1
    38    38    40   ar
    39    38    37   ar
    40    40    41   ar
    41    33    34    1
    42    33    36    1
    43    33    32    1
    44    34    35    2
    45    22    19    1
    46    37    36    1
    47    37    39   ar
    48    41    39   ar
    49    19    20    1
    50    19    18    1
    51    20    21    2
    52    10     9    2
    53    18     9   am
    54     9     8    1
    55    74    73    1
    56    74    75    1
    57    78    77    1
    58    77    76    2
    59    77    79    1
    60    73    70    1
    61    76    75    1
    62     8     7    1
    63     8    11    1
    64     7     3   am
    65     1     2    1
    66     2     3    1
    67     2     5    1
    68     3     4    2
    69    11    12    1
    70    70    69    1
    71    70    71    1
    72     5     6    1
    73    72    71    2
    74    71    80   am
    75    12    13   ar
    76    12    14   ar
    77    96    98   ar
    78    96    95   ar
    79    93    92    2
    80    13    15   ar
    81    83    82    2
    82    14    16   ar
    83    94    95    1
    84    94    91    1
    85    98   100   ar
    86    92    91    1
    87    80    81    1
    88    95    97   ar
    89    91    90    1
    90    87    86    1
    91    87    88    1
    92    82    86   am
    93    82    81    1
    94    15    17   ar
    95    16    17   ar
    96   100   101    1
    97   100    99   ar
    98    81    84    1
    99    97    99   ar
   100    88    89    2
   101    84    85    1
