@<TRIPOS>MOLECULE
tmp/1ei1B00.pdb
 201 193 0 0 0
SMALL
GASTEIGER

@<TRIPOS>ATOM
      1  N         10.3760   25.8810   17.5610 N.3    41  GLU41      -0.1231
      2  CA        11.1420   24.7310   17.0670 C.3    41  GLU41       0.1699
      3  C         10.2120   23.7580   16.3480 C.2    41  GLU41       0.2592
      4  O         10.6080   23.1030   15.3860 O.2    41  GLU41      -0.2718
      5  CB        11.7700   23.9720   18.2320 C.3    41  GLU41       0.0402
      6  CG        12.9600   24.6360   18.8610 C.3    41  GLU41       0.1161
      7  CD        14.2210   24.5040   18.0300 C.2    41  GLU41       0.3649
      8  OE1       15.3030   24.7580   18.6040 O.co2  41  GLU41      -0.2457
      9  OE2       14.1420   24.1500   16.8240 O.co2  41  GLU41      -0.2457
     10  N          8.9910   23.6330   16.8680 N.am   42  VAL42      -0.1980
     11  CA         7.9810   22.7530   16.3000 C.3    42  VAL42       0.1595
     12  C          7.3670   23.4160   15.0630 C.2    42  VAL42       0.2287
     13  O          7.3580   22.8360   13.9730 O.2    42  VAL42      -0.2864
     14  CB         6.8770   22.4440   17.3340 C.3    42  VAL42       0.0276
     15  CG1        5.8730   21.4600   16.7540 C.3    42  VAL42       0.0022
     16  CG2        7.4910   21.8880   18.6130 C.3    42  VAL42       0.0022
     17  N          8.4760   25.7670   13.1190 N.3    44  ASP44      -0.1225
     18  CA         9.4570   25.8200   12.0360 C.3    44  ASP44       0.1805
     19  C          9.4130   24.5570   11.2010 C.2    44  ASP44       0.2598
     20  O          9.4700   24.6210    9.9740 O.2    44  ASP44      -0.2718
     21  CB        10.8770   25.9660   12.5800 C.3    44  ASP44       0.1424
     22  CG        11.1340   27.3130   13.1960 C.2    44  ASP44       0.3668
     23  OD1       10.4940   28.3020   12.7840 O.co2  44  ASP44      -0.2456
     24  OD2       11.9860   27.3800   14.1040 O.co2  44  ASP44      -0.2456
     25  N          9.2990   23.4100   11.8640 N.am   45  ASN45      -0.1960
     26  CA         9.2540   22.1390   11.1510 C.3    45  ASN45       0.1819
     27  C          7.9890   22.0000   10.3120 C.2    45  ASN45       0.2621
     28  O          8.0070   21.4100    9.2300 O.2    45  ASN45      -0.2715
     29  CB         9.4260   20.9720   12.1220 C.3    45  ASN45       0.1195
     30  CG        10.8650   20.8020   12.5600 C.2    45  ASN45       0.2630
     31  OD1       11.7650   21.4680   12.0540 O.2    45  ASN45      -0.2716
     32  ND2       11.0850   19.9220   13.5160 N.am   45  ASN45      -0.0877
     33  N          6.9020   22.5850   10.8010 N.am   46  ALA46      -0.1977
     34  CA         5.6340   22.5680   10.0920 C.3    46  ALA46       0.1597
     35  C          5.7550   23.5040    8.8810 C.2    46  ALA46       0.2287
     36  O          5.3180   23.1750    7.7710 O.2    46  ALA46      -0.2864
     37  CB         4.5200   23.0120   11.0250 C.3    46  ALA46       0.0319
     38  N          7.4200   21.9740    6.0070 N.3    49  GLU49      -0.1245
     39  CA         6.5420   21.1420    5.1990 C.3    49  GLU49       0.1567
     40  C          5.8210   22.0470    4.2110 C.2    49  GLU49       0.2260
     41  O          5.5300   21.6510    3.0830 O.2    49  GLU49      -0.2867
     42  CB         5.5100   20.4440    6.0860 C.3    49  GLU49       0.0388
     43  CG         5.9890   19.1520    6.7240 C.3    49  GLU49       0.1160
     44  CD         6.2820   18.0470    5.7100 C.2    49  GLU49       0.3649
     45  OE1        7.3010   17.3520    5.8770 O.co2  49  GLU49      -0.2457
     46  OE2        5.4980   17.8610    4.7540 O.co2  49  GLU49      -0.2457
     47  N         -0.0480   20.4700   11.9320 N.3    72  ASP72      -0.1239
     48  CA         0.1190   20.8400   10.5340 C.3    72  ASP72       0.1674
     49  C         -0.4640   19.7120    9.6870 C.2    72  ASP72       0.2266
     50  O         -0.7130   18.6150   10.1930 O.2    72  ASP72      -0.2867
     51  CB         1.6010   21.0560   10.1860 C.3    72  ASP72       0.1410
     52  CG         2.4230   19.7730   10.2690 C.2    72  ASP72       0.3668
     53  OD1        2.1440   18.8170    9.5190 O.co2  72  ASP72      -0.2456
     54  OD2        3.3760   19.7230   11.0660 O.co2  72  ASP72      -0.2456
     55  N          3.6230   14.3030    7.4690 N.3    76  GLY76      -0.1210
     56  CA         3.6770   13.5850    8.7250 C.3    76  GLY76       0.1956
     57  C          5.0770   13.0320    8.9440 C.2    76  GLY76       0.2612
     58  O          5.7630   12.6440    7.9900 O.2    76  GLY76      -0.2717
     59  N          5.5330   13.0380   10.1960 N.am   77  ILE77      -0.1966
     60  CA         6.8550   12.5190   10.5310 C.3    77  ILE77       0.1712
     61  C          6.8620   11.0430   10.1130 C.2    77  ILE77       0.2458
     62  O          5.8540   10.3410   10.2920 O.2    77  ILE77      -0.2730
     63  CB         7.1140   12.6300   12.0530 C.3    77  ILE77       0.0289
     64  CG1        7.1260   14.0970   12.4780 C.3    77  ILE77       0.0022
     65  CG2        8.4180   11.9530   12.4410 C.3    77  ILE77       0.0023
     66  CD1        7.3440   14.3000   13.9810 C.3    77  ILE77       0.0001
     67  N          7.9710   10.5620    9.5180 N.am   78  PRO78      -0.2727
     68  CA         8.0220    9.1550    9.1040 C.3    78  PRO78       0.1402
     69  C          7.8100    8.2230   10.3090 C.2    78  PRO78       0.2269
     70  O          8.4580    8.3540   11.3610 O.2    78  PRO78      -0.2865
     71  CB         9.4130    9.0320    8.4890 C.3    78  PRO78       0.0296
     72  CG         9.6540   10.4300    7.9390 C.3    78  PRO78       0.0237
     73  CD         9.1910   11.2760    9.1020 C.3    78  PRO78       0.0939
     74  N         13.7230   10.5410   15.5350 N.3    93  ILE93      -0.1245
     75  CA        13.8730   11.9870   15.4690 C.3    93  ILE93       0.1561
     76  C         13.5750   12.6670   16.8040 C.2    93  ILE93       0.2260
     77  O         13.9750   13.7980   17.0280 O.2    93  ILE93      -0.2867
     78  CB        12.9630   12.6250   14.3890 C.3    93  ILE93       0.0252
     79  CG1       11.5200   12.7040   14.8840 C.3    93  ILE93       0.0019
     80  CG2       13.0220   11.8310   13.0940 C.3    93  ILE93       0.0019
     81  CD1       10.8650   14.0450   14.6380 C.3    93  ILE93       0.0001
     82  N         19.4450   13.8020   14.1790 N.3    99  ALA99      -0.1231
     83  CA        18.6880   12.8090   13.4320 C.3    99  ALA99       0.1694
     84  C         17.6060   13.6390   12.7640 C.2    99  ALA99       0.2593
     85  O         16.9160   14.3980   13.4420 O.2    99  ALA99      -0.2718
     86  CB        18.0660   11.7870   14.3680 C.3    99  ALA99       0.0304
     87  N         17.5070   13.5570   11.4380 N.am  100  GLY100     -0.1942
     88  CA        16.4930   14.3250   10.7350 C.3   100  GLY100      0.2014
     89  C         16.5090   14.1290    9.2370 C.2   100  GLY100      0.2639
     90  O         17.4530   13.5550    8.6970 O.2   100  GLY100     -0.2714
     91  N         15.4280   14.5170    8.5700 N.am  101  GLY101     -0.1939
     92  CA        15.3520   14.3970    7.1310 C.3   101  GLY101      0.2014
     93  C         15.8910   15.6200    6.4210 C.2   101  GLY101      0.2639
     94  O         15.7060   15.7670    5.2070 O.2   101  GLY101     -0.2714
     95  N         16.5730   16.4900    7.1570 N.am  102  LYS102     -0.1963
     96  CA        17.1300   17.7160    6.5820 C.3   102  LYS102      0.1728
     97  C         18.6630   17.7820    6.4530 C.2   102  LYS102      0.2616
     98  O         19.2640   18.8490    6.5460 O.2   102  LYS102     -0.2715
     99  CB        16.5800   18.9360    7.3280 C.3   102  LYS102      0.0311
    100  CG        15.3560   19.5420    6.6480 C.3   102  LYS102      0.0038
    101  CD        14.5000   20.4050    7.5600 C.3   102  LYS102      0.0206
    102  CE        13.3840   19.5970    8.1640 C.3   102  LYS102      0.1093
    103  NZ        12.4420   20.4060    8.9850 N.3   102  LYS102     -0.1314
    104  N         19.2890   16.6410    6.1910 N.am  103  PHE103     -0.1974
    105  CA        20.7310   16.5940    6.0130 C.3   103  PHE103      0.1639
    106  C         21.0790   16.5250    4.5320 C.2   103  PHE103      0.2290
    107  O         22.1750   16.1290    4.1610 O.2   103  PHE103     -0.2864
    108  CB        21.3440   15.4260    6.7860 C.3   103  PHE103      0.0560
    109  CG        21.3350   15.6240    8.2850 C.ar  103  PHE103     -0.0200
    110  CD1       21.7030   16.8500    8.8380 C.ar  103  PHE103     -0.0042
    111  CD2       20.9680   14.5850    9.1420 C.ar  103  PHE103     -0.0042
    112  CE1       21.7110   17.0400   10.2110 C.ar  103  PHE103     -0.0003
    113  CE2       20.9720   14.7670   10.5200 C.ar  103  PHE103     -0.0003
    114  CZ        21.3450   15.9950   11.0520 C.ar  103  PHE103     -0.0000
    115  N         13.4570   17.9990    1.7770 N.3   108  TYR108     -0.1241
    116  CA        13.1710   19.4220    1.8110 C.3   108  TYR108      0.1605
    117  C         14.2950   20.0810    1.0330 C.2   108  TYR108      0.2264
    118  O         15.4610   20.0050    1.4300 O.2   108  TYR108     -0.2867
    119  CB        13.1760   19.9550    3.2440 C.3   108  TYR108      0.0534
    120  CG        12.2430   19.2600    4.2160 C.ar  108  TYR108     -0.0201
    121  CD1       12.6300   18.0850    4.8680 C.ar  108  TYR108     -0.0009
    122  CD2       11.0200   19.8360    4.5640 C.ar  108  TYR108     -0.0009
    123  CE1       11.8350   17.5110    5.8490 C.ar  108  TYR108      0.0417
    124  CE2       10.2150   19.2730    5.5430 C.ar  108  TYR108      0.0417
    125  CZ        10.6320   18.1150    6.1850 C.ar  108  TYR108      0.1957
    126  OH         9.8550   17.5950    7.1910 O.3   108  TYR108     -0.2866
    127  N         15.1610   24.1270    9.0310 N.3   113  GLY113     -0.1210
    128  CA        15.7400   23.0140    9.7590 C.3   113  GLY113      0.1956
    129  C         17.0120   22.5120    9.1130 C.2   113  GLY113      0.2612
    130  O         17.1330   22.5370    7.8860 O.2   113  GLY113     -0.2717
    131  N         17.9550   22.0400    9.9260 N.am  114  LEU114     -0.1965
    132  CA        19.2320   21.5560    9.4080 C.3   114  LEU114      0.1728
    133  C         20.0550   20.8360   10.4640 C.2   114  LEU114      0.2616
    134  O         20.9260   20.0320   10.1470 O.2   114  LEU114     -0.2715
    135  CB        20.0580   22.7350    8.8670 C.3   114  LEU114      0.0311
    136  CG        20.7180   23.6840    9.8850 C.3   114  LEU114      0.0022
    137  CD1       21.7530   24.5690    9.2110 C.3   114  LEU114      0.0001
    138  CD2       19.6870   24.5220   10.6090 C.3   114  LEU114      0.0001
    139  N         19.7840   21.1340   11.7250 N.am  115  HIS115     -0.1959
    140  CA        20.5330   20.5490   12.8280 C.3   115  HIS115      0.1787
    141  C         20.1490   19.1260   13.2400 C.2   115  HIS115      0.2621
    142  O         20.9660   18.4060   13.8330 O.2   115  HIS115     -0.2715
    143  CB        20.4490   21.4790   14.0430 C.3   115  HIS115      0.0785
    144  CG        21.1460   22.7830   13.8480 C.ar  115  HIS115      0.0821
    145  ND1       20.7470   23.9420   14.4720 N.ar  115  HIS115     -0.2267
    146  CD2       22.2110   23.1170   13.0820 C.ar  115  HIS115      0.1154
    147  CE1       21.5320   24.9370   14.0980 C.ar  115  HIS115      0.1986
    148  NE2       22.4290   24.4600   13.2540 N.ar  115  HIS115     -0.2212
    149  N         18.9210   18.7150   12.9350 N.am  116  GLY116     -0.1940
    150  CA        18.4870   17.3950   13.3280 C.3   116  GLY116      0.2014
    151  C         18.3740   17.3030   14.8380 C.2   116  GLY116      0.2639
    152  O         18.5320   16.2190   15.3900 O.2   116  GLY116     -0.2714
    153  N         18.1470   18.4280   15.5180 N.am  117  VAL117     -0.1963
    154  CA        18.0350   18.4170   16.9850 C.3   117  VAL117      0.1727
    155  C         16.8230   19.1800   17.5180 C.2   117  VAL117      0.2617
    156  O         16.3880   18.9480   18.6470 O.2   117  VAL117     -0.2715
    157  CB        19.2980   19.0200   17.7010 C.3   117  VAL117      0.0290
    158  CG1       20.5750   18.4050   17.1820 C.3   117  VAL117      0.0023
    159  CG2       19.3450   20.5200   17.5460 C.3   117  VAL117      0.0023
    160  N         16.2710   20.0630   16.6910 N.am  118  GLY118     -0.1940
    161  CA        15.1560   20.9040   17.0910 C.3   118  GLY118      0.2014
    162  C         14.0390   20.3160   17.9290 C.2   118  GLY118      0.2639
    163  O         13.8100   20.7420   19.0660 O.2   118  GLY118     -0.2714
    164  N         13.3370   19.3370   17.3730 N.am  119  VAL119     -0.1963
    165  CA        12.2170   18.7290   18.0670 C.3   119  VAL119      0.1727
    166  C         12.6370   17.7880   19.2060 C.2   119  VAL119      0.2616
    167  O         11.8900   17.5850   20.1690 O.2   119  VAL119     -0.2715
    168  CB        11.2500   18.0660   17.0550 C.3   119  VAL119      0.0290
    169  CG1       11.7330   16.6850   16.6770 C.3   119  VAL119      0.0023
    170  CG2        9.8120   18.0860   17.5970 C.3   119  VAL119      0.0023
    171  N         13.8500   17.2560   19.1240 N.am  120  SER120     -0.1950
    172  CA        14.3610   16.3720   20.1690 C.3   120  SER120      0.1924
    173  C         14.7410   17.2290   21.3900 C.2   120  SER120      0.2314
    174  O         14.6570   16.7830   22.5380 O.2   120  SER120     -0.2863
    175  CB        15.5560   15.5590   19.6480 C.3   120  SER120      0.2116
    176  OG        16.3950   16.3390   18.8240 O.3   120  SER120     -0.2180
    177  N          1.1530   16.1210   11.3510 N.3   164  THR164     -0.1218
    178  CA         1.8960   15.8870   12.5800 C.3   164  THR164      0.1862
    179  C          1.4150   16.8810   13.6280 C.2   164  THR164      0.2287
    180  O          1.2220   18.0710   13.3550 O.2   164  THR164     -0.2866
    181  CB         3.4270   16.0890   12.3810 C.3   164  THR164      0.1770
    182  OG1        3.9060   15.2160   11.3490 O.3   164  THR164     -0.2211
    183  CG2        4.1890   15.7730   13.6680 C.3   164  THR164      0.0375
    184  N         22.3680   27.0150   17.7420 N.3   334  GLN334     -0.1245
    185  CA        21.2290   26.1690   17.4840 C.3   334  GLN334      0.1566
    186  C         19.9470   27.0020   17.3230 C.2   334  GLN334      0.2260
    187  O         18.9600   26.5270   16.7630 O.2   334  GLN334     -0.2867
    188  CB        21.0830   25.1630   18.6370 C.3   334  GLN334      0.0367
    189  CG        20.5450   23.7940   18.2440 C.3   334  GLN334      0.0905
    190  CD        19.1390   23.8360   17.6590 C.2   334  GLN334      0.2608
    191  OE1       18.9360   23.5530   16.4770 O.2   334  GLN334     -0.2717
    192  NE2       18.1670   24.1710   18.4850 N.am  334  GLN334     -0.0878
    193  N         19.5590   29.7520   15.5370 N.3   336  LYS336     -0.1245
    194  CA        19.6250   30.4520   14.2610 C.3   336  LYS336      0.1561
    195  C         19.4450   31.9550   14.3420 C.2   336  LYS336      0.2260
    196  O         18.6510   32.5380   13.6070 O.2   336  LYS336     -0.2867
    197  CB        18.6190   29.7920   13.3200 C.3   336  LYS336      0.0271
    198  CG        18.8020   28.2850   13.3730 C.3   336  LYS336      0.0035
    199  CD        17.7660   27.4970   12.6600 C.3   336  LYS336      0.0206
    200  CE        17.9380   26.0440   13.0410 C.3   336  LYS336      0.1093
    201  NZ        17.0200   25.1400   12.2980 N.3   336  LYS336     -0.1314
@<TRIPOS>BOND
     1   117   118    2
     2   117   116    1
     3   115   116    1
     4   116   119    1
     5    41    40    2
     6   119   120    1
     7   107   106    2
     8    40    39    1
     9   120   122   ar
    10   120   121   ar
    11   106   105    1
    12   122   124   ar
    13    46    44   ar
    14   121   123   ar
    15    39    38    1
    16    39    42    1
    17    94    93    2
    18   124   125   ar
    19    44    45   ar
    20    44    43    1
    21   123   125   ar
    22   105   104    1
    23   105   108    1
    24    42    43    1
    25   125   126    1
    26   104    97   am
    27    93    92    1
    28    93    95   am
    29    97    98    2
    30    97    96    1
    31    96    95    1
    32    96    99    1
    33   100    99    1
    34   100   101    1
    35   108   109    1
    36    92    91    1
    37    55    56    1
    38   101   102    1
    39    36    35    2
    40   130   129    2
    41    72    71    1
    42    72    73    1
    43    58    57    2
    44   102   103    1
    45   109   110   ar
    46   109   111   ar
    47    71    68    1
    48    91    89   am
    49    90    89    2
    50    56    57    1
    51   110   112   ar
    52   135   132    1
    53   135   136    1
    54    35    34    1
    55    57    59   am
    56   127   128    1
    57    73    67    1
    58    68    67    1
    59    68    69    1
    60   129   128    1
    61   129   131   am
    62   111   113   ar
    63   137   136    1
    64    28    27    2
    65    89    88    1
    66   132   131    1
    67   132   133    1
    68    67    61   am
    69    53    52   ar
    70    49    50    2
    71    49    48    1
    72   136   138    1
    73    20    19    2
    74    34    33    1
    75    34    37    1
    76    61    62    2
    77    61    60    1
    78   134   133    2
    79    51    52    1
    80    51    48    1
    81    59    60    1
    82   112   114   ar
    83    52    54   ar
    84    69    70    2
    85    27    33   am
    86    27    26    1
    87   133   139   am
    88   113   114   ar
    89    60    63    1
    90    48    47    1
    91    88    87    1
    92    26    25    1
    93    26    29    1
    94    19    25   am
    95    19    18    1
    96   182   181    1
    97   177   178    1
    98    87    84   am
    99   139   140    1
   100    18    21    1
   101    18    17    1
   102    63    65    1
   103    63    64    1
   104    31    30    2
   105    29    30    1
   106   201   200    1
   107   181   178    1
   108   181   183    1
   109    64    66    1
   110    30    32   am
   111    21    22    1
   112   178   179    1
   113   199   200    1
   114   199   198    1
   115    84    83    1
   116    84    85    2
   117    23    22   ar
   118   140   141    1
   119   140   143    1
   120   149   141   am
   121   149   150    1
   122   146   148   ar
   123   146   144   ar
   124    80    78    1
   125    22    24   ar
   126   141   142    2
   127   148   147   ar
   128   197   198    1
   129   197   194    1
   130   150   151    1
   131   180   179    2
   132    83    82    1
   133    83    86    1
   134   196   195    2
   135   144   143    1
   136   144   145   ar
   137    13    12    2
   138   147   145   ar
   139   194   195    1
   140   194   193    1
   141    78    79    1
   142    78    75    1
   143    81    79    1
   144   151   152    2
   145   151   153   am
   146    12    11    1
   147     4     3    2
   148    75    74    1
   149    75    76    1
   150   153   154    1
   151    11    10    1
   152    11    14    1
   153     3    10   am
   154     3     2    1
   155   191   190    2
   156   169   168    1
   157   160   161    1
   158   160   155   am
   159    15    14    1
   160   187   186    2
   161    76    77    2
   162     9     7   ar
   163   154   155    1
   164   154   157    1
   165   168   170    1
   166   168   165    1
   167     2     1    1
   168     2     5    1
   169   161   162    1
   170   158   157    1
   171   186   185    1
   172    14    16    1
   173   164   162   am
   174   164   165    1
   175   185   184    1
   176   185   188    1
   177   155   156    2
   178   159   157    1
   179   190   189    1
   180   190   192   am
   181   162   163    2
   182     7     8   ar
   183     7     6    1
   184   165   166    1
   185     5     6    1
   186   189   188    1
   187   176   175    1
   188   171   166   am
   189   171   172    1
   190   166   167    2
   191   175   172    1
   192   172   173    1
   193   173   174    2
