@<TRIPOS>MOLECULE
tmp/1ei6A00.pdb
 115 109 0 0 0
SMALL
GASTEIGER

@<TRIPOS>ATOM
      1  N          9.6110    4.2410   30.8930 N.3    24  ASP24      -0.1239
      2  CA        10.3480    3.8720   29.7010 C.3    24  ASP24       0.1674
      3  C         10.5790    5.0600   28.7590 C.2    24  ASP24       0.2266
      4  O          9.6730    5.8150   28.4650 O.2    24  ASP24      -0.2867
      5  CB         9.5370    2.7530   29.0200 C.3    24  ASP24       0.1410
      6  CG        10.2780    1.8600   28.0810 C.2    24  ASP24       0.3668
      7  OD1       11.0930    2.2430   27.3000 O.co2  24  ASP24      -0.2456
      8  OD2        9.9180    0.6230   28.1820 O.co2  24  ASP24      -0.2456
      9  N         18.9570    0.1180   26.3070 N.3    62  PHE62      -0.1227
     10  CA        17.7860   -0.6710   25.9260 C.3    62  PHE62       0.1736
     11  C         16.8400   -0.9730   27.0510 C.2    62  PHE62       0.2596
     12  O         17.2100   -0.9780   28.1920 O.2    62  PHE62      -0.2718
     13  CB        18.1320   -1.9570   25.1530 C.3    62  PHE62       0.0547
     14  CG        18.9620   -1.7860   23.8980 C.ar   62  PHE62      -0.0202
     15  CD1       18.8500   -0.6660   23.0740 C.ar   62  PHE62      -0.0042
     16  CD2       19.8520   -2.7960   23.5240 C.ar   62  PHE62      -0.0042
     17  CE1       19.6030   -0.5500   21.9070 C.ar   62  PHE62      -0.0003
     18  CE2       20.6220   -2.6900   22.3680 C.ar   62  PHE62      -0.0003
     19  CZ        20.5030   -1.5590   21.5640 C.ar   62  PHE62      -0.0000
     20  N         15.5920   -1.2510   26.6980 N.am   63  THR63      -0.1939
     21  CA        14.5560   -1.5130   27.6770 C.3    63  THR63       0.2028
     22  C         14.7290   -2.6410   28.6460 C.2    63  THR63       0.2642
     23  O         14.5310   -2.4550   29.8410 O.2    63  THR63      -0.2714
     24  CB        13.0970   -1.4700   27.0910 C.3    63  THR63       0.1808
     25  OG1       12.7090   -0.1280   26.8970 O.3    63  THR63      -0.2208
     26  CG2       12.1210   -2.0880   28.0750 C.3    63  THR63       0.0379
     27  N         15.0360   -3.8430   28.1430 N.am   64  ASN64      -0.1971
     28  CA        15.2010   -5.0300   28.9970 C.3    64  ASN64       0.1688
     29  C         16.4490   -5.0340   29.9380 C.2    64  ASN64       0.2292
     30  O         16.3630   -5.2970   31.1620 O.2    64  ASN64      -0.2864
     31  CB        15.2000   -6.3230   28.1500 C.3    64  ASN64       0.1181
     32  CG        13.8840   -6.8610   27.6400 C.2    64  ASN64       0.2629
     33  OD1       13.8710   -7.9810   27.1050 O.2    64  ASN64      -0.2716
     34  ND2       12.7970   -6.0790   27.7760 N.am   64  ASN64      -0.0877
     35  N         18.3570   -8.1930   23.6120 N.3    84  ASN84      -0.1240
     36  CA        17.2040   -9.0520   23.3070 C.3    84  ASN84       0.1653
     37  C         17.5840  -10.4500   22.9530 C.2    84  ASN84       0.2266
     38  O         16.7770  -11.3710   23.1100 O.2    84  ASN84      -0.2867
     39  CB        16.2070   -8.5260   22.2860 C.3    84  ASN84       0.1155
     40  CG        15.1580   -7.7660   23.0100 C.2    84  ASN84       0.2627
     41  OD1       15.5170   -7.0430   23.9370 O.2    84  ASN84      -0.2716
     42  ND2       13.8740   -7.9470   22.6300 N.am   84  ASN84      -0.0877
     43  N          4.0420   -4.3720   28.9810 N.3   125  LYS125     -0.1245
     44  CA         4.2750   -5.5070   28.1180 C.3   125  LYS125      0.1561
     45  C          4.4300   -6.7930   28.9000 C.2   125  LYS125      0.2260
     46  O          5.0160   -6.8120   29.9760 O.2   125  LYS125     -0.2867
     47  CB         5.3810   -5.2690   27.0910 C.3   125  LYS125      0.0271
     48  CG         4.9560   -4.2370   26.0450 C.3   125  LYS125      0.0035
     49  CD         5.7430   -4.2950   24.7490 C.3   125  LYS125      0.0206
     50  CE         5.6440   -3.0060   23.9450 C.3   125  LYS125      0.1093
     51  NZ         6.9290   -2.5820   23.3410 N.3   125  LYS125     -0.1314
     52  N          5.7850    1.6580   28.7390 N.3   200  THR200     -0.1203
     53  CA         6.3880    1.4380   27.4260 C.3   200  THR200      0.1994
     54  C          6.7000    2.8050   26.8410 C.2   200  THR200      0.2617
     55  O          6.0950    3.7810   27.2700 O.2   200  THR200     -0.2717
     56  CB         5.6400    0.4790   26.4750 C.3   200  THR200      0.1784
     57  OG1        6.4910    0.1240   25.4220 O.3   200  THR200     -0.2211
     58  CG2        4.3650    1.1220   25.9490 C.3   200  THR200      0.0376
     59  N          7.6710    2.8940   25.9360 N.am  201  ASP201     -0.1973
     60  CA         8.0690    4.1600   25.3430 C.3   201  ASP201      0.1709
     61  C          7.3800    4.4100   24.0180 C.2   201  ASP201      0.2293
     62  O          7.9070    5.0810   23.1750 O.2   201  ASP201     -0.2864
     63  CB         9.5840    4.2170   25.1320 C.3   201  ASP201      0.1436
     64  CG        10.0060    3.0420   24.3400 C.2   201  ASP201      0.3671
     65  OD1        9.2250    2.2390   23.8990 O.co2 201  ASP201     -0.2456
     66  OD2       11.2730    2.9650   24.1760 O.co2 201  ASP201     -0.2456
     67  N          8.5870    7.5290   21.3720 N.3   205  HIS205     -0.1241
     68  CA         9.2130    7.2070   20.0990 C.3   205  HIS205      0.1621
     69  C          8.5780    7.9880   18.9710 C.2   205  HIS205      0.2264
     70  O          9.1970    8.2290   17.9130 O.2   205  HIS205     -0.2867
     71  CB         9.0440    5.7050   19.8050 C.3   205  HIS205      0.0745
     72  CG        10.2690    4.8890   20.1360 C.ar  205  HIS205      0.0817
     73  ND1       11.4930    5.1690   19.5880 N.ar  205  HIS205     -0.2268
     74  CD2       10.4260    3.8310   20.9560 C.ar  205  HIS205      0.1154
     75  CE1       12.3590    4.2890   20.0470 C.ar  205  HIS205      0.1986
     76  NE2       11.7540    3.4650   20.8680 N.ar  205  HIS205     -0.2212
     77  N         15.9980    4.4570   29.9660 N.3   241  HIS241     -0.1241
     78  CA        16.8740    5.0790   29.0060 C.3   241  HIS241      0.1621
     79  C         16.1790    6.3630   28.5370 C.2   241  HIS241      0.2264
     80  O         14.9620    6.5070   28.6960 O.2   241  HIS241     -0.2867
     81  CB        17.1220    4.0520   27.8060 C.3   241  HIS241      0.0745
     82  CG        15.7930    3.5910   27.1600 C.ar  241  HIS241      0.0817
     83  ND1       15.0060    4.4920   26.4500 N.ar  241  HIS241     -0.2268
     84  CD2       15.1210    2.3980   27.2030 C.ar  241  HIS241      0.1154
     85  CE1       13.9010    3.8430   26.0520 C.ar  241  HIS241      0.1986
     86  NE2       13.9250    2.5890   26.5030 N.ar  241  HIS241     -0.2212
     87  N         18.4470   -4.3880   19.8220 N.3   277  ILE277     -0.1231
     88  CA        17.3940   -3.5240   20.3430 C.3   277  ILE277      0.1692
     89  C         16.0640   -4.2670   20.5780 C.2   277  ILE277      0.2592
     90  O         15.2980   -3.9580   21.5090 O.2   277  ILE277     -0.2718
     91  CB        17.2850   -2.1750   19.6480 C.3   277  ILE277      0.0266
     92  CG1       16.2030   -1.3140   20.2800 C.3   277  ILE277      0.0019
     93  CG2       17.0940   -2.3680   18.1620 C.3   277  ILE277      0.0020
     94  CD1       16.3130    0.1620   19.9230 C.3   277  ILE277      0.0001
     95  N         15.8360   -5.2740   19.7430 N.am  278  THR278     -0.1953
     96  CA        14.6710   -6.1340   19.8000 C.3   278  THR278      0.1897
     97  C         15.0680   -7.5300   19.3810 C.2   278  THR278      0.2313
     98  O         16.2650   -7.8170   19.1530 O.2   278  THR278     -0.2863
     99  CB        13.5280   -5.6380   18.8930 C.3   278  THR278      0.1794
    100  OG1       14.0850   -5.2720   17.6430 O.3   278  THR278     -0.2208
    101  CG2       12.8130   -4.4560   19.5440 C.3   278  THR278      0.0378
    102  N         11.2660   -0.4050   14.2410 N.3   286  GLY286     -0.1225
    103  CA        11.3440   -0.6880   15.6590 C.3   286  GLY286      0.1811
    104  C         12.6780   -1.3190   16.0370 C.2   286  GLY286      0.2280
    105  O         13.0510   -1.3790   17.2160 O.2   286  GLY286     -0.2866
    106  N         16.7950    5.2070   20.6670 N.3   367  HIS367     -0.1241
    107  CA        17.7840    5.1680   21.7040 C.3   367  HIS367      0.1621
    108  C         18.7700    4.0350   21.5450 C.2   367  HIS367      0.2264
    109  O         18.9160    3.4400   20.4850 O.2   367  HIS367     -0.2867
    110  CB        17.0770    4.9980   23.0570 C.3   367  HIS367      0.0745
    111  CG        16.0190    3.9260   23.0530 C.ar  367  HIS367      0.0817
    112  ND1       16.3000    2.6120   23.4640 N.ar  367  HIS367     -0.2268
    113  CD2       14.6730    3.9960   22.7290 C.ar  367  HIS367      0.1154
    114  CE1       15.1280    1.9030   23.3610 C.ar  367  HIS367      0.1986
    115  NE2       14.1610    2.7030   22.9250 N.ar  367  HIS367     -0.2212
@<TRIPOS>BOND
     1   102   103    1
     2   103   104    1
     3   104   105    2
     4   100    99    1
     5    70    69    2
     6    93    91    1
     7    99   101    1
     8    99    96    1
     9    69    68    1
    10    98    97    2
    11    97    96    1
    12    73    75   ar
    13    73    72   ar
    14    91    92    1
    15    91    88    1
    16    95    96    1
    17    95    89   am
    18    71    68    1
    19    71    72    1
    20    87    88    1
    21    94    92    1
    22    75    76   ar
    23    68    67    1
    24    72    74   ar
    25    88    89    1
    26   109   108    2
    27    89    90    2
    28   106   107    1
    29    76    74   ar
    30   108   107    1
    31    19    17   ar
    32    19    18   ar
    33   107   110    1
    34    17    15   ar
    35    39    40    1
    36    39    36    1
    37    18    16   ar
    38    42    40   am
    39   113   115   ar
    40   113   111   ar
    41   115   114   ar
    42    37    38    2
    43    37    36    1
    44    40    41    2
    45   111   110    1
    46   111   112   ar
    47    15    14   ar
    48    62    61    2
    49    36    35    1
    50    51    50    1
    51   114   112   ar
    52    16    14   ar
    53    14    13    1
    54    65    64   ar
    55    50    49    1
    56    61    60    1
    57    66    64   ar
    58    64    63    1
    59    49    48    1
    60    63    60    1
    61    13    10    1
    62    60    59    1
    63    57    56    1
    64    10     9    1
    65    10    11    1
    66    59    54   am
    67    58    56    1
    68    48    47    1
    69    85    83   ar
    70    85    86   ar
    71    83    82   ar
    72    56    53    1
    73    86    84   ar
    74    20    11   am
    75    20    21    1
    76    54    55    2
    77    54    53    1
    78    25    24    1
    79    11    12    2
    80    47    44    1
    81    24    21    1
    82    24    26    1
    83    33    32    2
    84    82    84   ar
    85    82    81    1
    86     7     6   ar
    87    53    52    1
    88    32    34   am
    89    32    31    1
    90    21    22    1
    91    81    78    1
    92     6     8   ar
    93     6     5    1
    94    44    45    1
    95    44    43    1
    96    27    22   am
    97    27    28    1
    98    31    28    1
    99     4     3    2
   100    79    80    2
   101    79    78    1
   102    22    23    2
   103     3     2    1
   104    45    46    2
   105    28    29    1
   106    78    77    1
   107     5     2    1
   108     2     1    1
   109    29    30    2
