@<TRIPOS>MOLECULE
tmp/1ei6B00.pdb
 127 122 0 0 0
SMALL
GASTEIGER

@<TRIPOS>ATOM
      1  N         16.2470   50.1290   50.7580 N.3    24  ASP24      -0.1239
      2  CA        17.2480   50.4180   49.7710 C.3    24  ASP24       0.1674
      3  C         16.7310   51.3930   48.6900 C.2    24  ASP24       0.2266
      4  O         15.6200   51.2680   48.1720 O.2    24  ASP24      -0.2867
      5  CB        17.7240   49.0430   49.2970 C.3    24  ASP24       0.1410
      6  CG        18.8430   49.0080   48.3530 C.2    24  ASP24       0.3668
      7  OD1       19.1790   49.9550   47.7200 O.co2  24  ASP24      -0.2456
      8  OD2       19.3470   47.8190   48.2320 O.co2  24  ASP24      -0.2456
      9  N         26.6190   53.5710   47.9820 N.3    62  PHE62      -0.1227
     10  CA        26.3620   52.2240   47.4960 C.3    62  PHE62       0.1736
     11  C         25.7100   51.3790   48.5910 C.2    62  PHE62       0.2596
     12  O         25.7320   51.7190   49.7660 O.2    62  PHE62      -0.2718
     13  CB        27.6020   51.5210   46.9390 C.3    62  PHE62       0.0547
     14  CG        28.1560   52.1570   45.7020 C.ar   62  PHE62      -0.0202
     15  CD1       27.3170   52.6960   44.7290 C.ar   62  PHE62      -0.0042
     16  CD2       29.5360   52.2080   45.4940 C.ar   62  PHE62      -0.0042
     17  CE1       27.8510   53.2710   43.5720 C.ar   62  PHE62      -0.0003
     18  CE2       30.0860   52.7720   44.3430 C.ar   62  PHE62      -0.0003
     19  CZ        29.2350   53.3130   43.3810 C.ar   62  PHE62      -0.0000
     20  N         25.0740   50.3110   48.1430 N.am   63  THR63      -0.1939
     21  CA        24.3590   49.4150   48.9700 C.3    63  THR63       0.2028
     22  C         25.1820   48.7440   50.0820 C.2    63  THR63       0.2642
     23  O         24.8750   48.8330   51.3090 O.2    63  THR63      -0.2714
     24  CB        23.6250   48.4330   48.0590 C.3    63  THR63       0.1808
     25  OG1       22.4860   49.0890   47.4490 O.3    63  THR63      -0.2208
     26  CG2       23.1440   47.2350   48.8710 C.3    63  THR63       0.0379
     27  N         26.2320   48.0440   49.6770 N.am   64  ASN64      -0.1971
     28  CA        27.1010   47.3430   50.6290 C.3    64  ASN64       0.1688
     29  C         27.7220   48.1810   51.7560 C.2    64  ASN64       0.2292
     30  O         27.4980   47.8760   52.9480 O.2    64  ASN64      -0.2864
     31  CB        28.1490   46.4400   49.9500 C.3    64  ASN64       0.1181
     32  CG        27.5100   45.1750   49.4400 C.2    64  ASN64       0.2629
     33  OD1       26.2660   45.0330   49.4890 O.2    64  ASN64      -0.2716
     34  ND2       28.3450   44.2580   48.9680 N.am   64  ASN64      -0.0877
     35  N         31.8610   47.0900   46.1220 N.3    84  ASN84      -0.1240
     36  CA        31.6020   45.7160   45.7270 C.3    84  ASN84       0.1653
     37  C         32.8360   45.0780   45.1450 C.2    84  ASN84       0.2266
     38  O         32.9190   43.8500   45.0110 O.2    84  ASN84      -0.2867
     39  CB        30.5430   45.6280   44.5920 C.3    84  ASN84       0.1155
     40  CG        29.1910   45.9800   45.1000 C.2    84  ASN84       0.2627
     41  OD1       28.8820   45.6810   46.2560 O.2    84  ASN84      -0.2716
     42  ND2       28.4080   46.6610   44.2690 N.am   84  ASN84      -0.0877
     43  N         18.3270   40.1800   48.9880 N.3   125  LYS125     -0.1245
     44  CA        19.3360   39.4190   48.2700 C.3   125  LYS125      0.1561
     45  C         20.1970   38.6090   49.1900 C.2   125  LYS125      0.2260
     46  O         20.5060   39.0080   50.3060 O.2   125  LYS125     -0.2867
     47  CB        20.2100   40.2770   47.3480 C.3   125  LYS125      0.0271
     48  CG        19.5200   40.6980   46.0390 C.3   125  LYS125      0.0035
     49  CD        20.4550   41.4030   45.0520 C.3   125  LYS125      0.0206
     50  CE        19.9210   41.4840   43.6220 C.3   125  LYS125      0.1093
     51  NZ        20.5300   42.5630   42.8310 N.3   125  LYS125     -0.1314
     52  N         16.7300   47.9090   45.8760 N.3   201  ASP201     -0.1239
     53  CA        16.1800   49.1120   45.2620 C.3   201  ASP201      0.1674
     54  C         15.7670   48.8880   43.7950 C.2   201  ASP201      0.2266
     55  O         15.8780   49.7600   42.9460 O.2   201  ASP201     -0.2867
     56  CB        17.2190   50.2250   45.3750 C.3   201  ASP201      0.1410
     57  CG        18.4600   49.7240   44.7840 C.2   201  ASP201      0.3668
     58  OD1       18.5520   48.5420   44.4790 O.co2 201  ASP201     -0.2456
     59  OD2       19.4000   50.6620   44.5870 O.co2 201  ASP201     -0.2456
     60  N         15.3140   51.8780   40.9880 N.3   205  HIS205     -0.1241
     61  CA        16.1160   52.0070   39.8000 C.3   205  HIS205      0.1621
     62  C         15.2260   52.0420   38.5560 C.2   205  HIS205      0.2264
     63  O         15.5890   52.5700   37.4860 O.2   205  HIS205     -0.2867
     64  CB        17.0970   50.8230   39.7090 C.3   205  HIS205      0.0745
     65  CG        18.4170   51.0280   40.3900 C.ar  205  HIS205      0.0817
     66  ND1       19.4310   51.7450   39.8030 N.ar  205  HIS205     -0.2268
     67  CD2       18.8640   50.5850   41.5840 C.ar  205  HIS205      0.1154
     68  CE1       20.4640   51.7380   40.6280 C.ar  205  HIS205      0.1986
     69  NE2       20.1600   51.0530   41.7220 N.ar  205  HIS205     -0.2212
     70  N         31.1850   49.8120   42.1070 N.3   277  ILE277     -0.1245
     71  CA        29.7870   49.3090   42.0840 C.3   277  ILE277      0.1561
     72  C         29.6850   47.9470   41.4070 C.2   277  ILE277      0.2260
     73  O         28.7060   47.2260   41.5460 O.2   277  ILE277     -0.2867
     74  CB        28.8640   50.2860   41.3660 C.3   277  ILE277      0.0252
     75  CG1       27.4240   49.8370   41.4920 C.3   277  ILE277      0.0019
     76  CG2       29.2500   50.3800   39.8770 C.3   277  ILE277      0.0019
     77  CD1       26.4930   50.8350   40.8090 C.3   277  ILE277      0.0001
     78  N         29.7990   44.2830   40.0720 N.3   279  ASP279     -0.1239
     79  CA        29.3710   42.9400   40.4780 C.3   279  ASP279      0.1674
     80  C         28.5320   42.2640   39.3720 C.2   279  ASP279      0.2266
     81  O         28.0930   42.9240   38.4200 O.2   279  ASP279     -0.2867
     82  CB        28.8390   42.7830   41.9280 C.3   279  ASP279      0.1410
     83  CG        27.3610   42.9930   42.1360 C.2   279  ASP279      0.3668
     84  OD1       26.6920   42.2930   42.8750 O.co2 279  ASP279     -0.2456
     85  OD2       26.8790   44.0320   41.4840 O.co2 279  ASP279     -0.2456
     86  N         25.5060   41.2540   39.2260 N.3   281  TYR281     -0.1241
     87  CA        24.1450   41.7670   39.1420 C.3   281  TYR281      0.1605
     88  C         24.0930   43.2320   38.6230 C.2   281  TYR281      0.2264
     89  O         24.0450   44.2070   39.3860 O.2   281  TYR281     -0.2867
     90  CB        23.4700   41.5660   40.5010 C.3   281  TYR281      0.0534
     91  CG        22.6760   40.2590   40.6180 C.ar  281  TYR281     -0.0201
     92  CD1       22.8670   39.2140   39.6970 C.ar  281  TYR281     -0.0009
     93  CD2       21.7470   40.1060   41.6530 C.ar  281  TYR281     -0.0009
     94  CE1       22.1440   38.0160   39.8370 C.ar  281  TYR281      0.0417
     95  CE2       21.0270   38.9130   41.7920 C.ar  281  TYR281      0.0417
     96  CZ        21.2290   37.8680   40.8890 C.ar  281  TYR281      0.1957
     97  OH        20.5380   36.7050   41.0400 O.3   281  TYR281     -0.2866
     98  N         20.0990   46.4330   37.3090 N.3   284  HIS284     -0.1226
     99  CA        19.6380   47.7180   37.8170 C.3   284  HIS284      0.1752
    100  C         20.2750   48.9430   37.1930 C.2   284  HIS284      0.2596
    101  O         19.5900   49.9400   36.9680 O.2   284  HIS284     -0.2718
    102  CB        19.9100   47.8630   39.3140 C.3   284  HIS284      0.0759
    103  CG        19.0700   46.9950   40.1380 C.ar  284  HIS284      0.0818
    104  ND1       19.1960   47.0080   41.5260 N.ar  284  HIS284     -0.2268
    105  CD2       18.1180   46.1070   39.7850 C.ar  284  HIS284      0.1154
    106  CE1       18.3150   46.1180   41.9690 C.ar  284  HIS284      0.1986
    107  NE2       17.6530   45.5620   40.9490 N.ar  284  HIS284     -0.2212
    108  N         21.5880   48.8920   36.9520 N.am  285  HIS285     -0.1975
    109  CA        22.2320   50.0670   36.4390 C.3   285  HIS285      0.1656
    110  C         23.2410   49.8600   35.3250 C.2   285  HIS285      0.2291
    111  O         23.8970   50.8140   34.9280 O.2   285  HIS285     -0.2864
    112  CB        22.8380   50.7920   37.6400 C.3   285  HIS285      0.0771
    113  CG        23.5360   49.7880   38.5000 C.ar  285  HIS285      0.0820
    114  ND1       24.4610   48.8950   37.9480 N.ar  285  HIS285     -0.2267
    115  CD2       23.4360   49.5330   39.8210 C.ar  285  HIS285      0.1154
    116  CE1       24.8850   48.1270   38.9310 C.ar  285  HIS285      0.1986
    117  NE2       24.2910   48.4840   40.0670 N.ar  285  HIS285     -0.2212
    118  N         22.8210   55.7800   41.6390 N.3   367  HIS367     -0.1241
    119  CA        23.2760   56.3480   42.8890 C.3   367  HIS367      0.1621
    120  C         24.8340   56.1840   43.0570 C.2   367  HIS367      0.2264
    121  O         25.5280   55.6310   42.1860 O.2   367  HIS367     -0.2867
    122  CB        22.4830   55.6840   44.0830 C.3   367  HIS367      0.0745
    123  CG        22.6340   54.1500   44.1650 C.ar  367  HIS367      0.0817
    124  ND1       23.6760   53.5570   44.8790 N.ar  367  HIS367     -0.2268
    125  CD2       21.9130   53.1470   43.6060 C.ar  367  HIS367      0.1154
    126  CE1       23.5560   52.2390   44.7560 C.ar  367  HIS367      0.1986
    127  NE2       22.5050   51.9560   43.9890 N.ar  367  HIS367     -0.2212
@<TRIPOS>BOND
     1   111   110    2
     2   110   109    1
     3   109   108    1
     4   109   112    1
     5   108   100   am
     6   101   100    2
     7   100    99    1
     8    98    99    1
     9    63    62    2
    10   112   113    1
    11    99   102    1
    12   114   113   ar
    13   114   116   ar
    14    81    80    2
    15   113   115   ar
    16    62    61    1
    17    88    87    1
    18    88    89    2
    19   116   117   ar
    20    87    86    1
    21    87    90    1
    22   102   103    1
    23    80    79    1
    24    92    94   ar
    25    92    91   ar
    26    64    61    1
    27    64    65    1
    28   105   103   ar
    29   105   107   ar
    30    61    60    1
    31    66    65   ar
    32    66    68   ar
    33   115   117   ar
    34    94    96   ar
    35    76    74    1
    36    78    79    1
    37   103   104   ar
    38    65    67   ar
    39    79    82    1
    40    90    91    1
    41    91    93   ar
    42    68    69   ar
    43    77    75    1
    44    96    97    1
    45    96    95   ar
    46   107   106   ar
    47    74    75    1
    48    74    71    1
    49    72    73    2
    50    72    71    1
    51    85    83   ar
    52   104   106   ar
    53    67    69   ar
    54   118   119    1
    55    93    95   ar
    56    82    83    1
    57    71    70    1
    58    83    84   ar
    59   121   120    2
    60    51    50    1
    61   119   120    1
    62   119   122    1
    63    55    54    2
    64    19    17   ar
    65    19    18   ar
    66    17    15   ar
    67   125   127   ar
    68   125   123   ar
    69    50    49    1
    70    54    53    1
    71   127   126   ar
    72   122   123    1
    73   123   124   ar
    74    42    40   am
    75    18    16   ar
    76    58    57   ar
    77    59    57   ar
    78    39    40    1
    79    39    36    1
    80    15    14   ar
    81   126   124   ar
    82    57    56    1
    83    38    37    2
    84    49    48    1
    85    40    41    2
    86    37    36    1
    87    53    56    1
    88    53    52    1
    89    16    14   ar
    90    14    13    1
    91    36    35    1
    92    48    47    1
    93    13    10    1
    94    47    44    1
    95    25    24    1
    96    10     9    1
    97    10    11    1
    98     7     6   ar
    99    24    26    1
   100    24    21    1
   101    20    11   am
   102    20    21    1
   103     4     3    2
   104     8     6   ar
   105    44    43    1
   106    44    45    1
   107     6     5    1
   108    11    12    2
   109     3     2    1
   110    34    32   am
   111    21    22    1
   112    45    46    2
   113     5     2    1
   114    32    33    2
   115    32    31    1
   116    27    22   am
   117    27    28    1
   118     2     1    1
   119    31    28    1
   120    22    23    2
   121    28    29    1
   122    29    30    2
