@<TRIPOS>MOLECULE
tmp/1einB00.pdb
 202 199 0 0 0
SMALL
GASTEIGER

@<TRIPOS>ATOM
      1  N         -0.8790   88.7370   -3.5240 N.3    83  SER83      -0.1202
      2  CA        -0.4720   87.3420   -3.7440 C.3    83  SER83       0.2020
      3  C         -1.6570   86.4650   -4.1080 C.2    83  SER83       0.2619
      4  O         -2.7180   86.4960   -3.4950 O.2    83  SER83      -0.2717
      5  CB         0.2730   86.8150   -2.5140 C.3    83  SER83       0.2103
      6  OG        -0.1320   87.6220   -1.4050 O.3    83  SER83      -0.2182
      7  N         -1.4720   85.6620   -5.1560 N.am   84  ARG84      -0.1965
      8  CA        -2.5180   84.7630   -5.6290 C.3    84  ARG84       0.1729
      9  C         -1.8990   83.4470   -6.0940 C.2    84  ARG84       0.2617
     10  O         -2.4640   82.3750   -5.9450 O.2    84  ARG84      -0.2715
     11  CB        -3.3460   85.3770   -6.7670 C.3    84  ARG84       0.0348
     12  CG        -4.1510   84.3420   -7.5170 C.3    84  ARG84       0.0492
     13  CD        -5.4690   84.8530   -8.0370 C.3    84  ARG84       0.2205
     14  NE        -6.2570   85.5230   -7.0130 N.pl3  84  ARG84      -0.0865
     15  CZ        -7.4190   86.1190   -7.2900 C.cat  84  ARG84       0.5346
     16  NH1       -8.1040   86.7230   -6.3180 N.pl3  84  ARG84       0.1354
     17  NH2       -7.8930   86.1100   -8.5300 N.pl3  84  ARG84       0.1354
     18  N         -0.7800   83.5420   -6.7870 N.am   85  SER85      -0.1936
     19  CA        -0.1410   82.3350   -7.2850 C.3    85  SER85       0.2055
     20  C          0.8130   81.7580   -6.2510 C.2    85  SER85       0.2642
     21  O          1.0220   82.2690   -5.1510 O.2    85  SER85      -0.2714
     22  CB         0.5350   82.5960   -8.6220 C.3    85  SER85       0.2130
     23  OG         1.7280   83.3060   -8.4560 O.3    85  SER85      -0.2179
     24  N          1.3460   80.5790   -6.5320 N.am   86  ILE86      -0.1977
     25  CA         2.2720   79.8750   -5.6570 C.3    86  ILE86       0.1596
     26  C          3.6290   80.5640   -5.6700 C.2    86  ILE86       0.2287
     27  O          4.3600   80.6230   -4.6740 O.2    86  ILE86      -0.2864
     28  CB         2.3950   78.4350   -6.1880 C.3    86  ILE86       0.0276
     29  CG1        1.1430   77.6140   -5.8560 C.3    86  ILE86       0.0022
     30  CG2        3.6440   77.6910   -5.7520 C.3    86  ILE86       0.0022
     31  CD1        1.1470   76.2760   -6.5660 C.3    86  ILE86       0.0001
     32  N          3.5110   83.4640   -3.5750 N.3    89  TRP89      -0.1241
     33  CA         3.6290   82.9250   -2.2420 C.3    89  TRP89       0.1605
     34  C          5.0340   82.5340   -1.8470 C.2    89  TRP89       0.2264
     35  O          5.4900   82.9020   -0.7550 O.2    89  TRP89      -0.2867
     36  CB         2.5770   81.8250   -2.0510 C.3    89  TRP89       0.0550
     37  CG         2.2060   82.0360   -0.6070 C.ar   89  TRP89       0.0003
     38  CD1        1.5640   83.1110   -0.0550 C.ar   89  TRP89       0.0946
     39  CD2        2.5470   81.1510    0.4640 C.ar   89  TRP89       0.0152
     40  NE1        1.4520   82.9370    1.3130 N.ar   89  TRP89      -0.2442
     41  CE2        2.0420   81.7390    1.6470 C.ar   89  TRP89       0.0810
     42  CE3        3.1640   79.8990    0.5110 C.ar   89  TRP89       0.0012
     43  CZ2        2.1650   81.1290    2.8850 C.ar   89  TRP89       0.0191
     44  CZ3        3.2920   79.2960    1.7510 C.ar   89  TRP89       0.0001
     45  CH2        2.7900   79.9170    2.9120 C.ar   89  TRP89       0.0015
     46  N          7.1290   85.7930   -1.1770 N.3    92  ASN92      -0.1225
     47  CA         6.9220   86.3930    0.1220 C.3    92  ASN92       0.1785
     48  C          7.7540   85.6620    1.1500 C.2    92  ASN92       0.2597
     49  O          8.1000   86.2470    2.1640 O.2    92  ASN92      -0.2718
     50  CB         5.4590   86.3360    0.5750 C.3    92  ASN92       0.1169
     51  CG         4.4790   86.8960   -0.4220 C.2    92  ASN92       0.2627
     52  OD1        3.2920   86.5680   -0.4570 O.2    92  ASN92      -0.2716
     53  ND2        4.9540   87.7630   -1.3130 N.am   92  ASN92      -0.0877
     54  N          8.0430   84.3890    0.9080 N.am   93  LEU93      -0.1980
     55  CA         8.8430   83.6190    1.8440 C.3    93  LEU93       0.1596
     56  C         10.3210   83.8330    1.8720 C.2    93  LEU93       0.2287
     57  O         10.9400   83.3890    2.8330 O.2    93  LEU93      -0.2864
     58  CB         8.5100   82.1230    1.6630 C.3    93  LEU93       0.0297
     59  CG         7.0560   81.8880    2.0870 C.3    93  LEU93       0.0022
     60  CD1        6.6900   80.4560    1.8510 C.3    93  LEU93       0.0001
     61  CD2        6.8840   82.3110    3.5410 C.3    93  LEU93       0.0001
     62  N         12.2800   86.0160    3.2940 N.3    95  PHE95      -0.1241
     63  CA        12.1580   87.1550    4.1840 C.3    95  PHE95       0.1605
     64  C         13.4930   87.6460    4.6910 C.2    95  PHE95       0.2264
     65  O         13.5660   88.5780    5.4980 O.2    95  PHE95      -0.2867
     66  CB        11.1860   86.8830    5.3230 C.3    95  PHE95       0.0534
     67  CG        11.4420   85.6020    6.0560 C.ar   95  PHE95      -0.0203
     68  CD1       10.8340   84.4350    5.6480 C.ar   95  PHE95      -0.0042
     69  CD2       12.2610   85.5920    7.1770 C.ar   95  PHE95      -0.0042
     70  CE1       11.0640   83.2440    6.3140 C.ar   95  PHE95      -0.0003
     71  CE2       12.4950   84.4110    7.8490 C.ar   95  PHE95      -0.0003
     72  CZ        11.8950   83.2430    7.4100 C.ar   95  PHE95      -0.0000
     73  N         13.3290   93.6710    2.4380 N.3   110  HIS110     -0.1241
     74  CA        12.9030   92.2750    2.2470 C.3   110  HIS110      0.1621
     75  C         13.3630   91.7860    0.8780 C.2   110  HIS110      0.2264
     76  O         13.2680   92.4610   -0.1320 O.2   110  HIS110     -0.2867
     77  CB        11.3880   92.2070    2.2750 C.3   110  HIS110      0.0745
     78  CG        10.7460   90.8830    2.0380 C.ar  110  HIS110      0.0817
     79  ND1       10.4570   90.3320    0.8040 N.ar  110  HIS110     -0.2268
     80  CD2       10.1900   90.0250    2.9410 C.ar  110  HIS110      0.1154
     81  CE1        9.7620   89.2280    0.9590 C.ar  110  HIS110      0.1986
     82  NE2        9.5960   89.0040    2.2510 N.ar  110  HIS110     -0.2212
     83  N         10.5850   90.9490   -2.4170 N.3   113  PHE113     -0.1241
     84  CA         9.8070   92.1480   -2.7540 C.3   113  PHE113      0.1605
     85  C         10.7790   92.9980   -3.5960 C.2   113  PHE113      0.2264
     86  O         10.6480   93.1350   -4.8110 O.2   113  PHE113     -0.2867
     87  CB         9.2870   92.9580   -1.5890 C.3   113  PHE113      0.0534
     88  CG         8.3320   92.3120   -0.6340 C.ar  113  PHE113     -0.0203
     89  CD1        7.5480   91.2390   -1.0490 C.ar  113  PHE113     -0.0042
     90  CD2        8.2160   92.7500    0.6770 C.ar  113  PHE113     -0.0042
     91  CE1        6.6940   90.5940   -0.1780 C.ar  113  PHE113     -0.0003
     92  CE2        7.3890   92.0980    1.5640 C.ar  113  PHE113     -0.0003
     93  CZ         6.5990   91.0610    1.1190 C.ar  113  PHE113     -0.0000
     94  N         -2.5970   96.0840   -2.7310 N.3   145  HIS145     -0.1226
     95  CA        -2.9830   95.5080   -1.4450 C.3   145  HIS145      0.1752
     96  C         -2.0000   94.3850   -1.1400 C.2   145  HIS145      0.2597
     97  O         -1.4920   93.7670   -2.0740 O.2   145  HIS145     -0.2718
     98  CB        -4.4060   94.9920   -1.5750 C.3   145  HIS145      0.0759
     99  CG        -4.8730   93.9740   -0.5960 C.ar  145  HIS145      0.0818
    100  ND1       -4.9690   92.6300   -0.8810 N.ar  145  HIS145     -0.2268
    101  CD2       -5.2600   94.1010    0.6970 C.ar  145  HIS145      0.1154
    102  CE1       -5.3650   91.9770    0.2020 C.ar  145  HIS145      0.1986
    103  NE2       -5.5750   92.8490    1.1830 N.ar  145  HIS145     -0.2212
    104  N         -1.6870   94.2130    0.1430 N.am  146  SER146     -0.1938
    105  CA        -0.8090   93.0970    0.5460 C.3   146  SER146      0.2055
    106  C          0.5310   93.1230   -0.1520 C.2   146  SER146      0.2642
    107  O          1.1680   94.1600   -0.3450 O.2   146  SER146     -0.2714
    108  CB        -1.6090   91.8340    0.2100 C.3   146  SER146      0.2130
    109  OG        -1.2930   90.7400    1.0280 O.3   146  SER146     -0.2179
    110  N          0.8760   92.0670   -0.8820 N.am  147  LEU147     -0.1977
    111  CA         2.1370   91.9300   -1.5950 C.3   147  LEU147      0.1596
    112  C          2.2770   93.0780   -2.5810 C.2   147  LEU147      0.2287
    113  O          3.3290   93.7100   -2.6830 O.2   147  LEU147     -0.2864
    114  CB         2.2740   90.5840   -2.2940 C.3   147  LEU147      0.0297
    115  CG         3.2140   90.5240   -3.4960 C.3   147  LEU147      0.0022
    116  CD1        4.6430   90.8000   -3.0590 C.3   147  LEU147      0.0001
    117  CD2        3.1290   89.1860   -4.1980 C.3   147  LEU147      0.0001
    118  N          2.6600   94.3310    4.2840 N.3   174  PRO174     -0.2116
    119  CA         3.6080   93.8780    5.2890 C.3   174  PRO174      0.1372
    120  C          4.7380   94.8940    5.4620 C.2   174  PRO174      0.2244
    121  O          4.7880   95.9140    4.7520 O.2   174  PRO174     -0.2868
    122  CB         4.1350   92.5860    4.6910 C.3   174  PRO174      0.0268
    123  CG         4.0880   92.7980    3.2200 C.3   174  PRO174      0.0207
    124  CD         2.9110   93.6920    2.9690 C.3   174  PRO174      0.0892
    125  N         -3.5460   90.4550   10.0170 N.3   202  ILE202     -0.1231
    126  CA        -2.2730   89.8600   10.4070 C.3   202  ILE202      0.1692
    127  C         -1.1110   90.3440    9.5410 C.2   202  ILE202      0.2591
    128  O          0.0030   90.4930   10.0460 O.2   202  ILE202     -0.2718
    129  CB        -2.2940   88.3230   10.3450 C.3   202  ILE202      0.0266
    130  CG1       -0.9950   87.7950   10.9690 C.3   202  ILE202      0.0019
    131  CG2       -2.4270   87.8230    8.9150 C.3   202  ILE202      0.0020
    132  CD1       -0.9810   86.2850   11.0420 C.3   202  ILE202      0.0001
    133  N         -1.3620   90.6550    8.2710 N.am  203  VAL203     -0.1980
    134  CA        -0.3370   90.9670    7.3080 C.3   203  VAL203      0.1595
    135  C          0.5380   92.1620    7.5610 C.2   203  VAL203      0.2287
    136  O          1.7670   91.9780    7.5710 O.2   203  VAL203     -0.2864
    137  CB        -0.7690   90.8880    5.8420 C.3   203  VAL203      0.0276
    138  CG1        0.3970   91.1440    4.8920 C.3   203  VAL203      0.0022
    139  CG2       -1.2980   89.4920    5.5160 C.3   203  VAL203      0.0022
    140  N          3.6800   91.3670    9.8080 N.3   206  LEU206     -0.1231
    141  CA         4.7840   90.4990    9.3980 C.3   206  LEU206      0.1678
    142  C          5.6820   91.1970    8.3640 C.2   206  LEU206      0.2434
    143  O          5.2250   92.0400    7.5930 O.2   206  LEU206     -0.2733
    144  CB         4.3030   89.2570    8.6630 C.3   206  LEU206      0.0284
    145  CG         3.6670   88.0040    9.1900 C.3   206  LEU206      0.0019
    146  CD1        3.1530   88.1100   10.6090 C.3   206  LEU206      0.0001
    147  CD2        2.4990   87.6280    8.2700 C.3   206  LEU206      0.0001
    148  N          6.9340   90.7730    8.2770 N.am  207  PRO207     -0.2718
    149  CA         7.5220   89.8000    9.1720 C.3   207  PRO207      0.1520
    150  C          7.6110   90.3410   10.5930 C.2   207  PRO207      0.2440
    151  O          7.3520   91.5120   10.8250 O.2   207  PRO207     -0.2731
    152  CB         8.9360   89.5890    8.6210 C.3   207  PRO207      0.0310
    153  CG         8.8810   90.0460    7.2070 C.3   207  PRO207      0.0237
    154  CD         7.9140   91.2030    7.2480 C.3   207  PRO207      0.0939
    155  N          7.8290   89.4570   11.5600 N.am  208  PRO208     -0.2727
    156  CA         8.0010   89.8740   12.9430 C.3   208  PRO208      0.1402
    157  C          9.0680   90.9610   12.9980 C.2   208  PRO208      0.2269
    158  O         10.0500   90.9220   12.2400 O.2   208  PRO208     -0.2865
    159  CB         8.4920   88.6180   13.6510 C.3   208  PRO208      0.0296
    160  CG         8.1490   87.4880   12.7460 C.3   208  PRO208      0.0237
    161  CD         8.2040   88.0360   11.3500 C.3   208  PRO208      0.0939
    162  N         12.8500   89.7290   13.2080 N.3   211  PHE211     -0.1241
    163  CA        13.7100   89.4320   12.0740 C.3   211  PHE211      0.1605
    164  C         14.3330   90.7180   11.5420 C.2   211  PHE211      0.2264
    165  O         14.9600   90.7240   10.4850 O.2   211  PHE211     -0.2867
    166  CB        13.0710   88.6330   10.9580 C.3   211  PHE211      0.0534
    167  CG        12.3490   87.3700   11.3240 C.ar  211  PHE211     -0.0203
    168  CD1       11.5060   86.7430   10.4130 C.ar  211  PHE211     -0.0042
    169  CD2       12.4940   86.7950   12.5750 C.ar  211  PHE211     -0.0042
    170  CE1       10.8690   85.5690   10.7760 C.ar  211  PHE211     -0.0003
    171  CE2       11.8220   85.6710   12.9630 C.ar  211  PHE211     -0.0003
    172  CZ        11.0210   85.0370   12.0460 C.ar  211  PHE211     -0.0000
    173  N         -7.5730   86.8260    9.9750 N.3   255  ILE255     -0.1245
    174  CA        -7.2740   86.7160    8.5540 C.3   255  ILE255      0.1561
    175  C         -8.2600   87.4620    7.6820 C.2   255  ILE255      0.2260
    176  O         -7.8390   88.3390    6.9310 O.2   255  ILE255     -0.2867
    177  CB        -7.1210   85.2890    8.0110 C.3   255  ILE255      0.0252
    178  CG1       -6.1200   84.4500    8.8000 C.3   255  ILE255      0.0019
    179  CG2       -6.7240   85.3490    6.5340 C.3   255  ILE255      0.0019
    180  CD1       -4.7990   85.1440    9.0270 C.3   255  ILE255      0.0001
    181  N         -7.8780   91.1440    6.7180 N.3   258  HIS258     -0.1226
    182  CA        -7.0370   91.4620    5.5760 C.3   258  HIS258      0.1752
    183  C         -7.8320   91.5620    4.2830 C.2   258  HIS258      0.2595
    184  O         -7.3780   92.1960    3.3160 O.2   258  HIS258     -0.2718
    185  CB        -6.0210   90.3260    5.4830 C.3   258  HIS258      0.0759
    186  CG        -4.9640   90.5360    4.4610 C.ar  258  HIS258      0.0818
    187  ND1       -4.0160   91.5250    4.5470 N.ar  258  HIS258     -0.2268
    188  CD2       -4.7310   89.8870    3.2890 C.ar  258  HIS258      0.1154
    189  CE1       -3.2310   91.4610    3.4840 C.ar  258  HIS258      0.1986
    190  NE2       -3.6490   90.4950    2.6920 N.ar  258  HIS258     -0.2212
    191  N         -8.9660   90.8780    4.1590 N.am  259  LEU259     -0.1980
    192  CA        -9.7340   90.9570    2.9330 C.3   259  LEU259      0.1596
    193  C        -10.6140   92.1940    2.8940 C.2   259  LEU259      0.2287
    194  O        -11.0510   92.5300    1.7950 O.2   259  LEU259     -0.2864
    195  CB       -10.5640   89.7020    2.7060 C.3   259  LEU259      0.0297
    196  CG        -9.8830   88.4060    2.2690 C.3   259  LEU259      0.0022
    197  CD1       -8.4290   88.5550    1.8510 C.3   259  LEU259      0.0001
    198  CD2      -10.0780   87.3500    3.3500 C.3   259  LEU259      0.0001
    199  N         -8.9140   91.4330   -2.8740 N.3   266  GLY266     -0.1225
    200  CA        -8.1310   90.2440   -3.1170 C.3   266  GLY266      0.1811
    201  C         -8.9310   88.9960   -3.4750 C.2   266  GLY266      0.2280
    202  O         -8.3370   87.9970   -3.8990 O.2   266  GLY266     -0.2866
@<TRIPOS>BOND
     1    22    23    1
     2    22    19    1
     3    17    15    1
     4    13    12    1
     5    13    14    1
     6    12    11    1
     7    15    14    2
     8    15    16    1
     9    19    18    1
    10    19    20    1
    11    18     9   am
    12    11     8    1
    13    31    29    1
    14    24    20   am
    15    24    25    1
    16    20    21    2
    17    28    29    1
    18    28    30    1
    19    28    25    1
    20     9    10    2
    21     9     8    1
    22    26    25    1
    23    26    27    2
    24     8     7    1
    25     7     3   am
    26    86    85    2
    27   117   115    1
    28     3     2    1
    29     3     4    2
    30   202   201    2
    31     2     1    1
    32     2     5    1
    33    85    84    1
    34    32    33    1
    35   115   116    1
    36   115   114    1
    37   201   200    1
    38   200   199    1
    39    84    83    1
    40    84    87    1
    41    94    95    1
    42   113   112    2
    43   112   111    1
    44     5     6    1
    45   114   111    1
    46    33    36    1
    47    33    34    1
    48    97    96    2
    49    36    37    1
    50    34    35    2
    51   111   110    1
    52    87    88    1
    53    98    95    1
    54    98    99    1
    55    95    96    1
    56    53    51   am
    57    46    47    1
    58    96   104   am
    59    89    88   ar
    60    89    91   ar
    61   110   106   am
    62   100    99   ar
    63   100   102   ar
    64    88    90   ar
    65    37    38   ar
    66    37    39   ar
    67    99   101   ar
    68    52    51    2
    69    51    50    1
    70   107   106    2
    71    91    93   ar
    72   106   105    1
    73    76    75    2
    74    38    40   ar
    75    47    50    1
    76    47    48    1
    77   104   105    1
    78   102   103   ar
    79   108   105    1
    80   108   109    1
    81    39    42   ar
    82    39    41   ar
    83    42    44   ar
    84    90    92   ar
    85   101   103   ar
    86    79    81   ar
    87    79    78   ar
    88    75    74    1
    89    54    48   am
    90    54    55    1
    91    81    82   ar
    92    93    92   ar
    93    48    49    2
    94    40    41   ar
    95    41    43   ar
    96    58    55    1
    97    58    59    1
    98    44    45   ar
    99   194   193    2
   100    55    56    1
   101    60    59    1
   102   197   196    1
   103    56    57    2
   104    78    77    1
   105    78    80   ar
   106    59    61    1
   107    74    77    1
   108    74    73    1
   109    82    80   ar
   110   196   195    1
   111   196   198    1
   112   190   188   ar
   113   190   189   ar
   114   195   192    1
   115    43    45   ar
   116   193   192    1
   117   192   191    1
   118   124   123    1
   119   124   118    1
   120   123   122    1
   121   188   186   ar
   122    62    63    1
   123   184   183    2
   124   189   187   ar
   125   191   183   am
   126    63    64    1
   127    63    66    1
   128   183   182    1
   129   118   119    1
   130   186   187   ar
   131   186   185    1
   132    64    65    2
   133   122   119    1
   134   121   120    2
   135   138   137    1
   136   119   120    1
   137    66    67    1
   138   185   182    1
   139   139   137    1
   140   182   181    1
   141    68    67   ar
   142    68    70   ar
   143   137   134    1
   144    67    69   ar
   145    70    72   ar
   146   179   177    1
   147   176   175    2
   148    69    71   ar
   149   153   154    1
   150   153   152    1
   151   154   148    1
   152   134   135    1
   153   134   133    1
   154    72    71   ar
   155   135   136    2
   156   143   142    2
   157   175   174    1
   158   177   174    1
   159   177   178    1
   160   147   145    1
   161   133   127   am
   162   148   142   am
   163   148   149    1
   164   142   141    1
   165   174   173    1
   166   152   149    1
   167   144   145    1
   168   144   141    1
   169   178   180    1
   170   131   129    1
   171   149   150    1
   172   145   146    1
   173   141   140    1
   174   127   128    2
   175   127   126    1
   176   125   126    1
   177   129   126    1
   178   129   130    1
   179   168   170   ar
   180   168   167   ar
   181   165   164    2
   182   150   151    2
   183   150   155   am
   184   170   172   ar
   185   166   167    1
   186   166   163    1
   187   130   132    1
   188   167   169   ar
   189   161   155    1
   190   161   160    1
   191   164   163    1
   192   155   156    1
   193   172   171   ar
   194   163   162    1
   195   158   157    2
   196   169   171   ar
   197   160   159    1
   198   156   157    1
   199   156   159    1
