@<TRIPOS>MOLECULE
tmp/1eioA00.pdb
 227 216 0 0 0
SMALL
GASTEIGER

@<TRIPOS>ATOM
      1  N         -5.4990   10.3040  -10.9820 N.3    17  PHE17      -0.1241
      2  CA        -5.8560    8.9010  -10.7910 C.3    17  PHE17       0.1605
      3  C         -6.8730    8.7780   -9.6330 C.2    17  PHE17       0.2264
      4  O         -7.7880    7.9500   -9.6370 O.2    17  PHE17      -0.2867
      5  CB        -4.6010    8.0810  -10.5050 C.3    17  PHE17       0.0534
      6  CG        -4.7650    6.6190  -10.8120 C.ar   17  PHE17      -0.0203
      7  CD1       -4.5740    6.1470  -12.1140 C.ar   17  PHE17      -0.0042
      8  CD2       -5.0800    5.7140   -9.7960 C.ar   17  PHE17      -0.0042
      9  CE1       -4.6560    4.7880  -12.3900 C.ar   17  PHE17      -0.0003
     10  CE2       -5.1850    4.3550  -10.0780 C.ar   17  PHE17      -0.0003
     11  CZ        -4.9760    3.8960  -11.3730 C.ar   17  PHE17      -0.0000
     12  N        -10.4300    9.1100  -10.5670 N.3    20  ARG20      -0.1231
     13  CA       -10.9860    7.9560  -11.2820 C.3    20  ARG20       0.1694
     14  C        -11.2920    6.7800  -10.3160 C.2    20  ARG20       0.2591
     15  O        -12.0850    5.8770  -10.5930 O.2    20  ARG20      -0.2718
     16  CB       -10.0390    7.4420  -12.3720 C.3    20  ARG20       0.0321
     17  CG        -9.4600    8.4900  -13.3240 C.3    20  ARG20       0.0489
     18  CD       -10.4830    9.4000  -13.9860 C.3    20  ARG20       0.2205
     19  NE        -9.8390   10.2910  -14.9660 N.pl3  20  ARG20      -0.0865
     20  CZ        -9.3920   11.5320  -14.6900 C.cat  20  ARG20       0.5346
     21  NH1       -9.2970   11.9860  -13.4510 N.pl3  20  ARG20       0.1354
     22  NH2       -8.9990   12.3460  -15.6670 N.pl3  20  ARG20       0.1354
     23  N        -10.5170    6.7500   -9.1740 N.am   21  LEU21      -0.1980
     24  CA       -10.7320    5.7530   -8.1360 C.3    21  LEU21       0.1596
     25  C        -11.9320    6.1150   -7.2360 C.2    21  LEU21       0.2287
     26  O        -12.5030    5.2450   -6.5730 O.2    21  LEU21      -0.2864
     27  CB        -9.5160    5.6180   -7.2160 C.3    21  LEU21       0.0297
     28  CG        -8.3920    4.7510   -7.7940 C.3    21  LEU21       0.0022
     29  CD1       -7.1400    4.9210   -6.9390 C.3    21  LEU21       0.0001
     30  CD2       -8.7800    3.2770   -7.7980 C.3    21  LEU21       0.0001
     31  N          1.9270   -6.6600    1.0650 N.3    49  TRP49      -0.1227
     32  CA         2.3630   -5.3600    0.5490 C.3    49  TRP49       0.1737
     33  C          1.8260   -4.2790    1.5070 C.2    49  TRP49       0.2596
     34  O          0.7950   -4.4260    2.1700 O.2    49  TRP49      -0.2718
     35  CB         1.7470   -5.1280   -0.8400 C.3    49  TRP49       0.0564
     36  CG         2.6000   -4.3560   -1.8040 C.ar   49  TRP49       0.0003
     37  CD1        2.7350   -2.9820   -1.8860 C.ar   49  TRP49       0.0946
     38  CD2        3.3540   -4.9110   -2.8960 C.ar   49  TRP49       0.0152
     39  NE1        3.5400   -2.6910   -2.9580 N.ar   49  TRP49      -0.2442
     40  CE2        3.8870   -3.8470   -3.6200 C.ar   49  TRP49       0.0810
     41  CE3        3.5950   -6.2230   -3.3620 C.ar   49  TRP49       0.0012
     42  CZ2        4.6190   -4.0290   -4.8000 C.ar   49  TRP49       0.0191
     43  CZ3        4.3410   -6.4260   -4.5310 C.ar   49  TRP49       0.0001
     44  CH2        4.8470   -5.3380   -5.2350 C.ar   49  TRP49       0.0015
     45  N          2.5230   -3.0990    1.4930 N.am   50  SER50      -0.1938
     46  CA         2.0120   -1.9010    2.1440 C.3    50  SER50       0.2055
     47  C          2.5530   -0.6670    1.4160 C.2    50  SER50       0.2642
     48  O          3.6870   -0.6280    0.9460 O.2    50  SER50      -0.2714
     49  CB         2.3820   -1.8130    3.6270 C.3    50  SER50       0.2130
     50  OG         1.4880   -0.9430    4.3200 O.3    50  SER50      -0.2179
     51  N          1.6730    0.3840    1.3390 N.am   51  GLN51      -0.1976
     52  CA         2.0700    1.7350    0.9510 C.3    51  GLN51       0.1601
     53  C          1.8440    2.6030    2.2020 C.2    51  GLN51       0.2287
     54  O          0.7210    2.9390    2.5910 O.2    51  GLN51      -0.2864
     55  CB         1.2180    2.2350   -0.2190 C.3    51  GLN51       0.0394
     56  CG         1.7360    1.6880   -1.5480 C.3    51  GLN51       0.0908
     57  CD         2.7890    2.5900   -2.1420 C.2    51  GLN51       0.2608
     58  OE1        3.9900    2.4150   -1.9720 O.2    51  GLN51      -0.2717
     59  NE2        2.3200    3.6400   -2.8690 N.am   51  GLN51      -0.0878
     60  N         -1.7680    2.1620    3.8770 N.3    59  ILE59      -0.1245
     61  CA        -2.5660    1.1950    3.1200 C.3    59  ILE59       0.1561
     62  C         -1.7750   -0.1320    3.0360 C.2    59  ILE59       0.2260
     63  O         -0.8420   -0.2760    2.2470 O.2    59  ILE59      -0.2867
     64  CB        -2.8720    1.7040    1.6770 C.3    59  ILE59       0.0252
     65  CG1       -3.4800    3.1240    1.6650 C.3    59  ILE59       0.0019
     66  CG2       -3.7920    0.7030    0.9630 C.3    59  ILE59       0.0019
     67  CD1       -3.7030    3.6830    0.2650 C.3    59  ILE59       0.0001
     68  N         -1.9580   -4.4580    2.4260 N.3    61  ASN61      -0.1240
     69  CA        -2.6980   -5.4100    1.5930 C.3    61  ASN61       0.1653
     70  C         -1.9690   -6.7650    1.6290 C.2    61  ASN61       0.2266
     71  O         -0.8170   -6.8990    1.2110 O.2    61  ASN61      -0.2867
     72  CB        -2.7730   -4.9510    0.1370 C.3    61  ASN61       0.1155
     73  CG        -4.1890   -4.7470   -0.3410 C.2    61  ASN61       0.2627
     74  OD1       -4.5950   -5.2240   -1.3970 O.2    61  ASN61      -0.2716
     75  ND2       -4.9820   -3.9360    0.4060 N.am   61  ASN61      -0.0877
     76  N         -2.1560  -10.4670   -0.0760 N.3    63  PHE63      -0.1241
     77  CA        -2.6790  -11.0100   -1.3290 C.3    63  PHE63       0.1605
     78  C         -1.9700  -12.3420   -1.6660 C.2    63  PHE63       0.2264
     79  O         -1.0060  -12.7710   -1.0280 O.2    63  PHE63      -0.2867
     80  CB        -2.7020   -9.9730   -2.4670 C.3    63  PHE63       0.0534
     81  CG        -1.3820   -9.5260   -3.0500 C.ar   63  PHE63      -0.0203
     82  CD1       -0.6540  -10.3770   -3.8970 C.ar   63  PHE63      -0.0042
     83  CD2       -0.9190   -8.2200   -2.8640 C.ar   63  PHE63      -0.0042
     84  CE1        0.4790   -9.9280   -4.5750 C.ar   63  PHE63      -0.0003
     85  CE2        0.2220   -7.7740   -3.5390 C.ar   63  PHE63      -0.0003
     86  CZ         0.9140   -8.6240   -4.3980 C.ar   63  PHE63      -0.0000
     87  N        -10.9730   -7.2160   -2.0020 N.3    71  ILE71      -0.1245
     88  CA       -10.4000   -5.9120   -1.7030 C.3    71  ILE71       0.1561
     89  C        -11.5620   -4.9480   -1.3450 C.2    71  ILE71       0.2260
     90  O        -12.5570   -4.8020   -2.0620 O.2    71  ILE71      -0.2867
     91  CB        -9.6460   -5.3200   -2.9260 C.3    71  ILE71       0.0252
     92  CG1       -8.5930   -6.2560   -3.5650 C.3    71  ILE71       0.0019
     93  CG2       -9.0160   -3.9700   -2.5650 C.3    71  ILE71       0.0019
     94  CD1       -7.3120   -6.4310   -2.7630 C.3    71  ILE71       0.0001
     95  N        -11.0490    1.1210   -0.2940 N.3    74  ILE74      -0.1245
     96  CA       -10.2950    2.1690   -0.9860 C.3    74  ILE74       0.1561
     97  C        -11.2660    2.8420   -2.0050 C.2    74  ILE74       0.2260
     98  O        -11.3800    2.5400   -3.1940 O.2    74  ILE74      -0.2867
     99  CB        -8.9850    1.6180   -1.6020 C.3    74  ILE74       0.0252
    100  CG1       -8.0320    1.0220   -0.5290 C.3    74  ILE74       0.0019
    101  CG2       -8.2240    2.6800   -2.4070 C.3    74  ILE74       0.0019
    102  CD1       -7.6030    1.9850    0.5740 C.3    74  ILE74       0.0001
    103  N        -15.8640    0.7180   -1.9340 N.3    77  LYS77      -0.1245
    104  CA       -16.4140   -0.4430   -2.6150 C.3    77  LYS77       0.1561
    105  C        -15.9550   -1.7110   -1.8590 C.2    77  LYS77       0.2260
    106  O        -15.0840   -1.6900   -0.9890 O.2    77  LYS77      -0.2867
    107  CB       -15.9770   -0.5480   -4.0890 C.3    77  LYS77       0.0271
    108  CG       -15.8020    0.7800   -4.8310 C.3    77  LYS77       0.0035
    109  CD       -14.3400    1.2280   -4.8110 C.3    77  LYS77       0.0206
    110  CE       -14.1500    2.5710   -5.4910 C.3    77  LYS77       0.1093
    111  NZ       -12.7120    2.8680   -5.5450 N.3    77  LYS77      -0.1314
    112  N        -14.7010   -4.9200   -3.7830 N.3    79  PHE79      -0.1241
    113  CA       -14.3430   -5.5670   -5.0460 C.3    79  PHE79       0.1605
    114  C        -13.7350   -6.9550   -4.7580 C.2    79  PHE79       0.2264
    115  O        -13.1060   -7.2040   -3.7310 O.2    79  PHE79      -0.2867
    116  CB       -13.2910   -4.7290   -5.8040 C.3    79  PHE79       0.0534
    117  CG       -13.8400   -3.8300   -6.8950 C.ar   79  PHE79      -0.0203
    118  CD1      -14.9990   -3.0660   -6.7150 C.ar   79  PHE79      -0.0042
    119  CD2      -13.1490   -3.7210   -8.1120 C.ar   79  PHE79      -0.0042
    120  CE1      -15.4670   -2.2270   -7.7290 C.ar   79  PHE79      -0.0003
    121  CE2      -13.6150   -2.8810   -9.1250 C.ar   79  PHE79      -0.0003
    122  CZ       -14.7740   -2.1350   -8.9340 C.ar   79  PHE79      -0.0000
    123  N        -10.6410   -9.0050   -7.0860 N.3    81  ALA81      -0.1245
    124  CA        -9.6210   -8.7280   -8.0750 C.3    81  ALA81       0.1562
    125  C         -8.8720  -10.0320   -8.3590 C.2    81  ALA81       0.2260
    126  O         -8.5910  -10.8270   -7.4630 O.2    81  ALA81      -0.2867
    127  CB        -8.6380   -7.6850   -7.5620 C.3    81  ALA81       0.0290
    128  N         -1.9300   -6.8050  -10.1790 N.3    92  VAL92      -0.1245
    129  CA        -3.3420   -6.8930   -9.8030 C.3    92  VAL92       0.1561
    130  C         -4.1500   -6.4340  -11.0420 C.2    92  VAL92       0.2260
    131  O         -3.7990   -5.4700  -11.7280 O.2    92  VAL92      -0.2867
    132  CB        -3.6730   -5.9920   -8.5930 C.3    92  VAL92       0.0252
    133  CG1       -5.1580   -6.0750   -8.2280 C.3    92  VAL92       0.0019
    134  CG2       -2.8200   -6.3610   -7.3770 C.3    92  VAL92       0.0019
    135  N         -8.4900   -6.0980  -12.3350 N.3    94  SER94      -0.1203
    136  CA        -9.8850   -6.0860  -11.8620 C.3    94  SER94       0.2005
    137  C        -10.7620   -5.2120  -12.7920 C.2    94  SER94       0.2461
    138  O        -10.2770   -4.5880  -13.7440 O.2    94  SER94      -0.2732
    139  CB        -9.9600   -5.6760  -10.3810 C.3    94  SER94       0.2103
    140  OG        -9.7020   -4.2930  -10.1660 O.3    94  SER94      -0.2182
    141  N        -12.1240   -5.1530  -12.5690 N.am   95  PRO95      -0.2717
    142  CA       -12.9840   -4.4360  -13.5140 C.3    95  PRO95       0.1535
    143  C        -12.6600   -2.9290  -13.5520 C.2    95  PRO95       0.2599
    144  O        -12.7550   -2.1860  -12.5760 O.2    95  PRO95      -0.2715
    145  CB       -14.4030   -4.6790  -12.9970 C.3    95  PRO95       0.0310
    146  CG       -14.2950   -6.0420  -12.3300 C.3    95  PRO95       0.0237
    147  CD       -12.9190   -5.9970  -11.6840 C.3    95  PRO95       0.0939
    148  N        -12.1980   -2.4920  -14.7820 N.am   96  ASN96      -0.1959
    149  CA       -11.8070   -1.1000  -15.0420 C.3    96  ASN96       0.1819
    150  C        -10.4620   -0.7630  -14.3570 C.2    96  ASN96       0.2621
    151  O        -10.1810    0.3740  -13.9720 O.2    96  ASN96      -0.2715
    152  CB       -12.9100   -0.1090  -14.6530 C.3    96  ASN96       0.1195
    153  CG       -12.8320    1.1860  -15.4260 C.2    96  ASN96       0.2630
    154  OD1      -11.8730    1.5530  -16.0950 O.2    96  ASN96      -0.2716
    155  ND2      -13.9360    1.9810  -15.2890 N.am   96  ASN96      -0.0877
    156  N         -9.5310   -1.7940  -14.3210 N.am   97  TYR97      -0.1974
    157  CA        -8.3110   -1.6150  -13.5260 C.3    97  TYR97       0.1639
    158  C         -7.2520   -2.7030  -13.8480 C.2    97  TYR97       0.2290
    159  O         -7.4610   -3.9060  -13.6780 O.2    97  TYR97      -0.2864
    160  CB        -8.6720   -1.7040  -12.0340 C.3    97  TYR97       0.0560
    161  CG        -7.5490   -1.3140  -11.1110 C.ar   97  TYR97      -0.0198
    162  CD1       -7.2570    0.0390  -10.9020 C.ar   97  TYR97      -0.0009
    163  CD2       -6.7880   -2.2950  -10.4620 C.ar   97  TYR97      -0.0009
    164  CE1       -6.2130    0.4040  -10.0580 C.ar   97  TYR97       0.0417
    165  CE2       -5.7460   -1.9260   -9.6140 C.ar   97  TYR97       0.0417
    166  CZ        -5.4590   -0.5760   -9.4320 C.ar   97  TYR97       0.1957
    167  OH        -4.4300   -0.1720   -8.6310 O.3    97  TYR97      -0.2866
    168  N         -2.8710   -3.1780  -12.9340 N.3    99  HIS99      -0.1241
    169  CA        -1.8350   -2.6070  -12.0620 C.3    99  HIS99       0.1621
    170  C         -0.6700   -3.5870  -12.0360 C.2    99  HIS99       0.2264
    171  O         -0.6780   -4.5650  -11.2880 O.2    99  HIS99      -0.2867
    172  CB        -2.3700   -2.3740  -10.6500 C.3    99  HIS99       0.0745
    173  CG        -1.3800   -1.8390   -9.6790 C.ar   99  HIS99       0.0817
    174  ND1       -1.3860   -0.4860   -9.3030 N.ar   99  HIS99      -0.2268
    175  CD2       -0.3510   -2.5210   -8.9610 C.ar   99  HIS99       0.1154
    176  CE1       -0.3470   -0.3410   -8.3960 C.ar   99  HIS99       0.1986
    177  NE2        0.2740   -1.5720   -8.1880 N.ar   99  HIS99      -0.2212
    178  N          3.5460   -4.4080  -11.5690 N.3   101  ALA101     -0.1245
    179  CA         4.5320   -4.1400  -10.5300 C.3   101  ALA101      0.1562
    180  C          5.8150   -4.8970  -10.9450 C.2   101  ALA101      0.2260
    181  O          5.9880   -6.0900  -10.7000 O.2   101  ALA101     -0.2867
    182  CB         4.0070   -4.5990   -9.1780 C.3   101  ALA101      0.0290
    183  N          5.9630    0.4810  -10.5760 N.3   110  GLU110     -0.1245
    184  CA         4.5660    0.1220  -10.7900 C.3   110  GLU110      0.1567
    185  C          4.0530    0.9040  -12.0050 C.2   110  GLU110      0.2260
    186  O          4.4680    2.0300  -12.2800 O.2   110  GLU110     -0.2867
    187  CB         3.6610    0.4220   -9.5950 C.3   110  GLU110      0.0388
    188  CG         4.0370   -0.3850   -8.3580 C.3   110  GLU110      0.1160
    189  CD         2.9290   -0.2790   -7.3370 C.2   110  GLU110      0.3649
    190  OE1        2.5840    0.8770   -6.9550 O.co2 110  GLU110     -0.2457
    191  OE2        2.3550   -1.3720   -7.0410 O.co2 110  GLU110     -0.2457
    192  N         -0.0450    1.5650  -12.8000 N.3   112  SER112     -0.1217
    193  CA        -1.4900    1.4110  -12.7230 C.3   112  SER112      0.1889
    194  C         -2.1290    2.0150  -13.9800 C.2   112  SER112      0.2288
    195  O         -1.6610    3.0100  -14.5360 O.2   112  SER112     -0.2866
    196  CB        -2.0850    2.1350  -11.5150 C.3   112  SER112      0.2089
    197  OG        -1.2630    2.0040  -10.3540 O.3   112  SER112     -0.2183
    198  N         -6.3080    2.7850  -15.2930 N.3   114  VAL114     -0.1245
    199  CA        -7.7250    2.9020  -14.9040 C.3   114  VAL114      0.1561
    200  C         -8.4520    3.5140  -16.1210 C.2   114  VAL114      0.2260
    201  O         -7.8560    3.8450  -17.1500 O.2   114  VAL114     -0.2867
    202  CB        -7.7970    3.7700  -13.6270 C.3   114  VAL114      0.0252
    203  CG1       -7.5820    5.2590  -13.9020 C.3   114  VAL114      0.0019
    204  CG2       -9.0490    3.5950  -12.7790 C.3   114  VAL114      0.0019
    205  N         -0.9310    5.6230  -14.2690 N.3   119  TYR119     -0.1241
    206  CA        -0.2440    6.1500  -13.0930 C.3   119  TYR119      0.1605
    207  C          0.8750    5.1660  -12.7880 C.2   119  TYR119      0.2264
    208  O          0.6730    4.0660  -12.2770 O.2   119  TYR119     -0.2867
    209  CB        -1.2160    6.2810  -11.9200 C.3   119  TYR119      0.0534
    210  CG        -0.6720    6.4810  -10.5270 C.ar  119  TYR119     -0.0201
    211  CD1        0.4930    7.2020  -10.2510 C.ar  119  TYR119     -0.0009
    212  CD2       -1.4020    5.9420   -9.4510 C.ar  119  TYR119     -0.0009
    213  CE1        0.9130    7.3740   -8.9290 C.ar  119  TYR119      0.0417
    214  CE2       -0.9960    6.1320   -8.1350 C.ar  119  TYR119      0.0417
    215  CZ         0.1560    6.8540   -7.8830 C.ar  119  TYR119      0.1957
    216  OH         0.5150    7.0220   -6.5780 O.3   119  TYR119     -0.2866
    217  N          4.7590    4.6240  -11.0660 N.3   121  ARG121     -0.1245
    218  CA         5.4590    4.8920   -9.8290 C.3   121  ARG121      0.1563
    219  C          6.8220    4.2380  -10.0150 C.2   121  ARG121      0.2260
    220  O          6.9470    3.1470  -10.5780 O.2   121  ARG121     -0.2867
    221  CB         4.7590    4.1800   -8.6730 C.3   121  ARG121      0.0307
    222  CG         5.2480    4.6410   -7.3070 C.3   121  ARG121      0.0489
    223  CD         4.9520    3.6300   -6.2180 C.3   121  ARG121      0.2205
    224  NE         3.5890    3.1290   -6.2060 N.pl3 121  ARG121     -0.0865
    225  CZ         2.4460    3.8010   -6.1710 C.cat 121  ARG121      0.5346
    226  NH1        2.3540    5.0850   -5.8750 N.pl3 121  ARG121      0.1354
    227  NH2        1.3290    3.1270   -6.4470 N.pl3 121  ARG121      0.1354
@<TRIPOS>BOND
     1   201   200    2
     2   200   199    1
     3   154   153    2
     4    22    20    1
     5   153   155   am
     6   153   152    1
     7   198   199    1
     8   149   148    1
     9   149   152    1
    10   149   150    1
    11    19    20    2
    12    19    18    1
    13   199   202    1
    14   148   143   am
    15    20    21    1
    16   195   194    2
    17   150   156   am
    18   150   151    2
    19   156   157    1
    20   205   206    1
    21    18    17    1
    22   194   193    1
    23   203   202    1
    24   158   159    2
    25   158   157    1
    26   138   137    2
    27   202   204    1
    28   143   142    1
    29   143   144    2
    30   157   160    1
    31   142   145    1
    32   142   141    1
    33    17    16    1
    34   206   207    1
    35   206   209    1
    36   145   146    1
    37   168   169    1
    38   192   193    1
    39   137   141   am
    40   137   136    1
    41   207   208    2
    42   193   196    1
    43   141   147    1
    44     9     7   ar
    45     9    11   ar
    46    16    13    1
    47   135   136    1
    48   146   147    1
    49   186   185    2
    50     7     6   ar
    51   169   170    1
    52   169   172    1
    53   170   171    2
    54   160   161    1
    55   185   184    1
    56   209   210    1
    57   136   139    1
    58   131   130    2
    59   178   179    1
    60   196   197    1
    61    11    10   ar
    62    13    12    1
    63    13    14    1
    64   161   162   ar
    65   161   163   ar
    66   217   218    1
    67   130   129    1
    68     1     2    1
    69   180   181    2
    70   180   179    1
    71   162   164   ar
    72     6     5    1
    73     6     8   ar
    74     2     5    1
    75     2     3    1
    76   184   183    1
    77   184   187    1
    78   172   173    1
    79    15    14    2
    80   220   219    2
    81   179   182    1
    82   210   211   ar
    83   210   212   ar
    84   163   165   ar
    85   139   140    1
    86    14    23   am
    87   211   213   ar
    88   128   129    1
    89    10     8   ar
    90   164   166   ar
    91   219   218    1
    92   218   221    1
    93   129   132    1
    94   173   174   ar
    95   173   175   ar
    96     4     3    2
    97   165   166   ar
    98   187   188    1
    99   212   214   ar
   100   166   167    1
   101   174   176   ar
   102    23    24    1
   103   121   122   ar
   104   121   119   ar
   105   175   177   ar
   106   122   120   ar
   107   213   215   ar
   108   221   222    1
   109   132   133    1
   110   132   134    1
   111   176   177   ar
   112   125   124    1
   113   125   126    2
   114   188   189    1
   115    24    25    1
   116    24    27    1
   117   214   215   ar
   118   119   117   ar
   119   124   127    1
   120   124   123    1
   121   215   216    1
   122    30    28    1
   123    28    27    1
   124    28    29    1
   125   120   118   ar
   126   189   191   ar
   127   189   190   ar
   128   222   223    1
   129    25    26    2
   130   117   118   ar
   131   117   116    1
   132   227   225    1
   133   223   224    1
   134   224   225    2
   135   225   226    1
   136   116   113    1
   137   111   110    1
   138   110   109    1
   139    44    42   ar
   140    44    43   ar
   141   113   114    1
   142   113   112    1
   143   108   109    1
   144   108   107    1
   145    42    40   ar
   146   114   115    2
   147    84    86   ar
   148    84    82   ar
   149    43    41   ar
   150    86    85   ar
   151   107   104    1
   152    82    81   ar
   153    40    39   ar
   154    40    38   ar
   155    92    91    1
   156    92    94    1
   157    85    83   ar
   158    41    38   ar
   159    98    97    2
   160    81    83   ar
   161    81    80    1
   162    39    37   ar
   163    91    93    1
   164    91    88    1
   165    38    36   ar
   166    59    57   am
   167   104   103    1
   168   104   105    1
   169    80    77    1
   170   101    99    1
   171    57    58    2
   172    57    56    1
   173    90    89    2
   174    97    96    1
   175    87    88    1
   176    37    36   ar
   177   105   106    2
   178    36    35    1
   179    88    89    1
   180    78    77    1
   181    78    79    2
   182    99    96    1
   183    99   100    1
   184    56    55    1
   185    74    73    2
   186    77    76    1
   187    96    95    1
   188    35    32    1
   189   100   102    1
   190    73    72    1
   191    73    75   am
   192    55    52    1
   193    72    69    1
   194    67    65    1
   195    32    31    1
   196    32    33    1
   197    48    47    2
   198    52    51    1
   199    52    53    1
   200    66    64    1
   201    71    70    2
   202    51    47   am
   203    47    46    1
   204    45    33   am
   205    45    46    1
   206    33    34    2
   207    69    70    1
   208    69    68    1
   209    65    64    1
   210    64    61    1
   211    46    49    1
   212    53    54    2
   213    63    62    2
   214    62    61    1
   215    61    60    1
   216    49    50    1
