@<TRIPOS>MOLECULE
tmp/1eirA00.pdb
 144 138 0 0 0
SMALL
GASTEIGER

@<TRIPOS>ATOM
      1  N         84.8080   49.2120   17.8150 N.3   145  HIS145     -0.1241
      2  CA        84.7310   48.3180   18.9670 C.3   145  HIS145      0.1621
      3  C         85.9680   47.4250   19.0560 C.2   145  HIS145      0.2264
      4  O         86.8280   47.4320   18.1650 O.2   145  HIS145     -0.2867
      5  CB        83.4750   47.4400   18.8890 C.3   145  HIS145      0.0745
      6  CG        83.5980   46.2850   17.9410 C.ar  145  HIS145      0.0817
      7  ND1       82.9000   46.2210   16.7530 N.ar  145  HIS145     -0.2268
      8  CD2       84.3230   45.1430   18.0130 C.ar  145  HIS145      0.1154
      9  CE1       83.1900   45.0900   16.1350 C.ar  145  HIS145      0.1986
     10  NE2       84.0520   44.4180   16.8780 N.ar  145  HIS145     -0.2212
     11  N         87.3040   43.4310   21.0430 N.3   147  VAL147     -0.1245
     12  CA        86.9810   42.2580   21.8460 C.3   147  VAL147      0.1561
     13  C         88.0150   42.1040   22.9550 C.2   147  VAL147      0.2260
     14  O         89.1980   41.8910   22.6940 O.2   147  VAL147     -0.2867
     15  CB        86.9540   40.9780   20.9810 C.3   147  VAL147      0.0252
     16  CG1       86.7310   39.7720   21.8580 C.3   147  VAL147      0.0019
     17  CG2       85.8500   41.0890   19.9320 C.3   147  VAL147      0.0019
     18  N         77.0800   35.0800   21.8750 N.3   172  ILE172     -0.1245
     19  CA        77.3480   34.1300   20.8090 C.3   172  ILE172      0.1561
     20  C         78.2600   33.0700   21.3940 C.2   172  ILE172      0.2260
     21  O         79.2660   33.3910   22.0290 O.2   172  ILE172     -0.2867
     22  CB        78.0580   34.7610   19.5880 C.3   172  ILE172      0.0252
     23  CG1       77.1850   35.8560   18.9730 C.3   172  ILE172      0.0019
     24  CG2       78.3260   33.6730   18.5340 C.3   172  ILE172      0.0019
     25  CD1       77.7710   36.4760   17.7170 C.3   172  ILE172      0.0001
     26  N         80.8760   30.9600   20.6680 N.3   174  ILE174     -0.1245
     27  CA        81.9030   30.7670   19.6590 C.3   174  ILE174      0.1561
     28  C         82.5670   29.4220   19.8590 C.2   174  ILE174      0.2260
     29  O         83.2220   29.1860   20.8730 O.2   174  ILE174     -0.2867
     30  CB        82.9500   31.8960   19.7220 C.3   174  ILE174      0.0252
     31  CG1       82.2540   33.2470   19.5040 C.3   174  ILE174      0.0019
     32  CG2       84.0170   31.6740   18.6720 C.3   174  ILE174      0.0019
     33  CD1       83.0990   34.4550   19.8300 C.3   174  ILE174      0.0001
     34  N         80.7700   34.4930   24.1550 N.3   184  ALA184     -0.1245
     35  CA        81.2100   35.8710   23.9790 C.3   184  ALA184      0.1562
     36  C         80.0570   36.8060   24.2790 C.2   184  ALA184      0.2260
     37  O         78.9760   36.6510   23.7080 O.2   184  ALA184     -0.2867
     38  CB        81.6850   36.0830   22.5540 C.3   184  ALA184      0.0290
     39  N         78.5120   40.5270   24.0510 N.3   186  PHE186     -0.1241
     40  CA        78.6020   41.7970   23.3390 C.3   186  PHE186      0.1605
     41  C         77.8520   42.8980   24.0800 C.2   186  PHE186      0.2264
     42  O         76.6770   42.7470   24.4310 O.2   186  PHE186     -0.2867
     43  CB        78.0750   41.6160   21.9140 C.3   186  PHE186      0.0534
     44  CG        78.8400   40.5850   21.1330 C.ar  186  PHE186     -0.0203
     45  CD1       78.5930   39.2270   21.3280 C.ar  186  PHE186     -0.0042
     46  CD2       79.8630   40.9620   20.2650 C.ar  186  PHE186     -0.0042
     47  CE1       79.3550   38.2610   20.6800 C.ar  186  PHE186     -0.0003
     48  CE2       80.6330   40.0010   19.6100 C.ar  186  PHE186     -0.0003
     49  CZ        80.3770   38.6490   19.8220 C.ar  186  PHE186     -0.0000
     50  N         77.6850   46.8480   19.3370 N.3   194  HIS194     -0.1241
     51  CA        78.5750   46.6030   20.4600 C.3   194  HIS194      0.1621
     52  C         79.8640   47.4040   20.3160 C.2   194  HIS194      0.2264
     53  O         80.3920   47.5720   19.2090 O.2   194  HIS194     -0.2867
     54  CB        78.8520   45.1000   20.6570 C.3   194  HIS194      0.0745
     55  CG        79.5460   44.4400   19.5100 C.ar  194  HIS194      0.0817
     56  ND1       80.8860   44.1170   19.5390 N.ar  194  HIS194     -0.2268
     57  CD2       79.0800   44.0100   18.3130 C.ar  194  HIS194      0.1154
     58  CE1       81.2150   43.5180   18.4090 C.ar  194  HIS194      0.1986
     59  NE2       80.1380   43.4400   17.6480 N.ar  194  HIS194     -0.2212
     60  N         88.8590   33.8400   25.8590 N.3   201  PHE201     -0.1241
     61  CA        89.6620   33.1690   24.8360 C.3   201  PHE201      0.1605
     62  C         91.0420   32.7370   25.3410 C.2   201  PHE201      0.2264
     63  O         91.6600   33.4190   26.1670 O.2   201  PHE201     -0.2867
     64  CB        89.8750   34.0890   23.6370 C.3   201  PHE201      0.0534
     65  CG        88.6760   34.2350   22.7580 C.ar  201  PHE201     -0.0203
     66  CD1       88.4330   35.4400   22.0980 C.ar  201  PHE201     -0.0042
     67  CD2       87.7900   33.1720   22.5770 C.ar  201  PHE201     -0.0042
     68  CE1       87.3220   35.5850   21.2640 C.ar  201  PHE201     -0.0003
     69  CE2       86.6770   33.3050   21.7470 C.ar  201  PHE201     -0.0003
     70  CZ        86.4430   34.5150   21.0890 C.ar  201  PHE201     -0.0000
     71  N         91.4500   40.4970   21.2230 N.3   208  HIS208     -0.1226
     72  CA        91.4840   39.5750   20.1040 C.3   208  HIS208      0.1752
     73  C         91.5950   40.4010   18.8170 C.2   208  HIS208      0.2596
     74  O         92.2770   40.0070   17.8710 O.2   208  HIS208     -0.2718
     75  CB        90.2050   38.7280   20.1170 C.3   208  HIS208      0.0759
     76  CG        90.0520   37.8440   18.9260 C.ar  208  HIS208      0.0818
     77  ND1       89.5140   38.2860   17.7390 N.ar  208  HIS208     -0.2268
     78  CD2       90.3820   36.5460   18.7310 C.ar  208  HIS208      0.1154
     79  CE1       89.5210   37.3000   16.8600 C.ar  208  HIS208      0.1986
     80  NE2       90.0420   36.2320   17.4370 N.ar  208  HIS208     -0.2212
     81  N         90.9300   41.5540   18.7940 N.am  209  HIS209     -0.1975
     82  CA        90.9690   42.4480   17.6380 C.3   209  HIS209      0.1656
     83  C         90.2160   43.7490   17.9160 C.2   209  HIS209      0.2291
     84  O         89.4780   43.8460   18.9070 O.2   209  HIS209     -0.2864
     85  CB        90.3460   41.7650   16.4100 C.3   209  HIS209      0.0771
     86  CG        88.8470   41.7300   16.4310 C.ar  209  HIS209      0.0820
     87  ND1       88.1330   40.6350   16.8740 N.ar  209  HIS209     -0.2267
     88  CD2       87.9270   42.6620   16.0840 C.ar  209  HIS209      0.1154
     89  CE1       86.8400   40.8940   16.8000 C.ar  209  HIS209      0.1986
     90  NE2       86.6880   42.1170   16.3240 N.ar  209  HIS209     -0.2212
     91  N         78.0540   39.0190   10.1540 N.3   240  HIS240     -0.1241
     92  CA        77.8010   38.4830   11.4790 C.3   240  HIS240      0.1621
     93  C         76.3230   38.1920   11.7440 C.2   240  HIS240      0.2264
     94  O         75.4290   38.7520   11.1010 O.2   240  HIS240     -0.2867
     95  CB        78.3410   39.4380   12.5400 C.3   240  HIS240      0.0745
     96  CG        79.8370   39.4770   12.6070 C.ar  240  HIS240      0.0817
     97  ND1       80.5940   38.3760   12.9430 N.ar  240  HIS240     -0.2268
     98  CD2       80.7140   40.4840   12.3840 C.ar  240  HIS240      0.1154
     99  CE1       81.8740   38.7020   12.9240 C.ar  240  HIS240      0.1986
    100  NE2       81.9740   39.9750   12.5890 N.ar  240  HIS240     -0.2212
    101  N         74.8210   38.5250   14.9130 N.3   242  ASN242     -0.1225
    102  CA        74.2680   39.5230   15.8220 C.3   242  ASN242      0.1785
    103  C         74.2270   40.9840   15.3480 C.2   242  ASN242      0.2597
    104  O         73.1620   41.6030   15.3760 O.2   242  ASN242     -0.2718
    105  CB        74.9640   39.4190   17.1910 C.3   242  ASN242      0.1169
    106  CG        76.4710   39.6610   17.1230 C.2   242  ASN242      0.2627
    107  OD1       77.0700   39.7360   16.0420 O.2   242  ASN242     -0.2716
    108  ND2       77.0910   39.7830   18.2930 N.am  242  ASN242     -0.0877
    109  N         75.3520   41.5470   14.9130 N.am  243  ASP243     -0.1974
    110  CA        75.3300   42.9400   14.4680 C.3   243  ASP243      0.1709
    111  C         75.0770   43.0980   12.9770 C.2   243  ASP243      0.2293
    112  O         74.8330   44.2070   12.5080 O.2   243  ASP243     -0.2864
    113  CB        76.6250   43.6780   14.8710 C.3   243  ASP243      0.1436
    114  CG        77.8520   43.2080   14.0980 C.2   243  ASP243      0.3671
    115  OD1       78.9760   43.6010   14.4830 O.co2 243  ASP243     -0.2456
    116  OD2       77.7060   42.4520   13.1130 O.co2 243  ASP243     -0.2456
    117  N         88.5530   39.8810    8.3190 N.3   249  TYR249     -0.1241
    118  CA        89.5600   40.0610    9.3490 C.3   249  TYR249      0.1605
    119  C         90.9480   39.9770    8.7350 C.2   249  TYR249      0.2264
    120  O         91.1280   39.4220    7.6520 O.2   249  TYR249     -0.2867
    121  CB        89.3980   39.0020   10.4390 C.3   249  TYR249      0.0534
    122  CG        88.1220   39.1380   11.2510 C.ar  249  TYR249     -0.0201
    123  CD1       88.1510   39.6380   12.5530 C.ar  249  TYR249     -0.0009
    124  CD2       86.8940   38.7170   10.7360 C.ar  249  TYR249     -0.0009
    125  CE1       86.9970   39.7070   13.3270 C.ar  249  TYR249      0.0417
    126  CE2       85.7370   38.7810   11.4980 C.ar  249  TYR249      0.0417
    127  CZ        85.7920   39.2720   12.7930 C.ar  249  TYR249      0.1957
    128  OH        84.6530   39.3010   13.5630 O.3   249  TYR249     -0.2866
    129  N         89.3730   44.1710   12.2280 N.3   260  GLU260     -0.1245
    130  CA        88.1820   43.8640   11.4650 C.3   260  GLU260      0.1567
    131  C         87.7490   45.1390   10.7490 C.2   260  GLU260      0.2260
    132  O         87.6470   46.2120   11.3440 O.2   260  GLU260     -0.2867
    133  CB        87.0710   43.3480   12.3730 C.3   260  GLU260      0.0388
    134  CG        85.8920   42.7800   11.5950 C.3   260  GLU260      0.1160
    135  CD        84.7250   42.4150   12.4880 C.2   260  GLU260      0.3649
    136  OE1       84.7820   42.7240   13.6940 O.co2 260  GLU260     -0.2457
    137  OE2       83.7520   41.8180   11.9860 O.co2 260  GLU260     -0.2457
    138  N         79.0440   32.9450   14.7630 N.3   280  THR280     -0.1218
    139  CA        79.4240   34.3570   14.6940 C.3   280  THR280      0.1862
    140  C         79.1010   34.9160   13.3190 C.2   280  THR280      0.2287
    141  O         79.0760   36.1290   13.1270 O.2   280  THR280     -0.2866
    142  CB        80.9400   34.6010   14.9480 C.3   280  THR280      0.1770
    143  OG1       81.7100   33.8900   13.9730 O.3   280  THR280     -0.2211
    144  CG2       81.3410   34.1760   16.3570 C.3   280  THR280      0.0375
@<TRIPOS>BOND
     1   120   119    2
     2   117   118    1
     3   119   118    1
     4   118   121    1
     5    91    92    1
     6   121   122    1
     7   124   122   ar
     8   124   126   ar
     9   131   132    2
    10   131   130    1
    11    94    93    2
    12   122   123   ar
    13   130   129    1
    14   130   133    1
    15    92    93    1
    16    92    95    1
    17   126   127   ar
    18   134   133    1
    19   134   135    1
    20   137   135   ar
    21    98   100   ar
    22    98    96   ar
    23   135   136   ar
    24   112   111    2
    25    95    96    1
    26   123   125   ar
    27   100    99   ar
    28    96    97   ar
    29   127   125   ar
    30   127   128    1
    31    99    97   ar
    32   111   110    1
    33   116   114   ar
    34   141   140    2
    35   140   139    1
    36   143   142    1
    37   114   115   ar
    38   114   113    1
    39   110   113    1
    40   110   109    1
    41   139   138    1
    42   139   142    1
    43   109   103   am
    44   101   102    1
    45   142   144    1
    46   103   104    2
    47   103   102    1
    48   102   105    1
    49   107   106    2
    50    88    90   ar
    51    88    86   ar
    52     9     7   ar
    53     9    10   ar
    54    90    89   ar
    55    85    86    1
    56    85    82    1
    57    86    87   ar
    58     7     6   ar
    59    89    87   ar
    60    79    80   ar
    61    79    77   ar
    62    10     8   ar
    63   106   105    1
    64   106   108   am
    65    80    78   ar
    66    82    83    1
    67    82    81    1
    68    59    57   ar
    69    59    58   ar
    70    25    23    1
    71    77    76   ar
    72     1     2    1
    73    74    73    2
    74    83    84    2
    75     6     8   ar
    76     6     5    1
    77     4     3    2
    78    57    55   ar
    79    58    56   ar
    80    24    22    1
    81    32    30    1
    82    78    76   ar
    83    81    73   am
    84    73    72    1
    85     5     2    1
    86    76    75    1
    87     2     3    1
    88    23    22    1
    89    53    52    2
    90    50    51    1
    91    31    30    1
    92    31    33    1
    93    55    56   ar
    94    55    54    1
    95    22    19    1
    96    48    49   ar
    97    48    46   ar
    98    27    30    1
    99    27    28    1
   100    27    26    1
   101    49    47   ar
   102    28    29    2
   103    17    15    1
   104    72    75    1
   105    72    71    1
   106    46    44   ar
   107    52    51    1
   108    51    54    1
   109    47    45   ar
   110    19    20    1
   111    19    18    1
   112    15    12    1
   113    15    16    1
   114    11    12    1
   115    70    68   ar
   116    70    69   ar
   117    44    45   ar
   118    44    43    1
   119    68    66   ar
   120    20    21    2
   121    69    67   ar
   122    12    13    1
   123    43    40    1
   124    66    65   ar
   125    38    35    1
   126    67    65   ar
   127    14    13    2
   128    65    64    1
   129    40    39    1
   130    40    41    1
   131    64    61    1
   132    37    36    2
   133    35    34    1
   134    35    36    1
   135    41    42    2
   136    61    62    1
   137    61    60    1
   138    62    63    2
