@<TRIPOS>MOLECULE
tmp/1eixC00.pdb
 179 167 0 0 0
SMALL
GASTEIGER

@<TRIPOS>ATOM
      1  N         32.4890   45.0860   65.2160 N.3     9  ALA9       -0.1245
      2  CA        33.6300   44.4830   65.8820 C.3     9  ALA9        0.1562
      3  C         33.3610   43.0200   66.1270 C.2     9  ALA9        0.2260
      4  O         32.4240   42.6690   66.8440 O.2     9  ALA9       -0.2867
      5  CB        33.9010   45.1780   67.2040 C.3     9  ALA9        0.0290
      6  N         34.2110   40.3240   68.1110 N.3    11  ASP11      -0.1239
      7  CA        34.9200   39.9810   69.3290 C.3    11  ASP11       0.1674
      8  C         34.3920   38.6800   69.9400 C.2    11  ASP11       0.2266
      9  O         33.7850   38.6790   71.0080 O.2    11  ASP11      -0.2867
     10  CB        34.8250   41.1360   70.3350 C.3    11  ASP11       0.1410
     11  CG        35.4150   42.4330   69.7940 C.2    11  ASP11       0.3668
     12  OD1       36.0540   42.4030   68.7210 O.co2  11  ASP11      -0.2456
     13  OD2       35.2510   43.4860   70.4420 O.co2  11  ASP11      -0.2456
     14  N         35.5970   44.3140   61.7100 N.3    33  LYS33      -0.1245
     15  CA        36.8040   44.6240   62.4480 C.3    33  LYS33       0.1561
     16  C         37.3120   43.3900   63.2070 C.2    33  LYS33       0.2260
     17  O         36.5750   42.8130   64.0100 O.2    33  LYS33      -0.2867
     18  CB        36.4950   45.7620   63.4180 C.3    33  LYS33       0.0271
     19  CG        37.6630   46.2440   64.2600 C.3    33  LYS33       0.0035
     20  CD        37.1890   47.3580   65.1830 C.3    33  LYS33       0.0206
     21  CE        37.8150   47.2660   66.5660 C.3    33  LYS33       0.1093
     22  NZ        37.5010   45.9920   67.2590 N.3    33  LYS33      -0.1314
     23  N         39.8740   42.1570   65.9090 N.3    35  GLY35      -0.1225
     24  CA        40.7340   42.6990   66.9390 C.3    35  GLY35       0.1811
     25  C         41.7030   41.7470   67.5910 C.2    35  GLY35       0.2280
     26  O         41.9460   40.6390   67.1100 O.2    35  GLY35      -0.2866
     27  N         39.1670   45.6560   58.8080 N.3    58  PHE58      -0.1241
     28  CA        39.9250   46.6300   59.5770 C.3    58  PHE58       0.1605
     29  C         40.7140   45.8060   60.5970 C.2    58  PHE58       0.2264
     30  O         40.1550   45.3370   61.5970 O.2    58  PHE58      -0.2867
     31  CB        38.9920   47.6110   60.3010 C.3    58  PHE58       0.0534
     32  CG        39.6810   48.4590   61.3510 C.ar   58  PHE58      -0.0203
     33  CD1       41.0430   48.7430   61.2680 C.ar   58  PHE58      -0.0042
     34  CD2       38.9590   48.9910   62.4140 C.ar   58  PHE58      -0.0042
     35  CE1       41.6740   49.5410   62.2270 C.ar   58  PHE58      -0.0003
     36  CE2       39.5840   49.7930   63.3800 C.ar   58  PHE58      -0.0003
     37  CZ        40.9460   50.0650   63.2810 C.ar   58  PHE58      -0.0000
     38  N         42.4950   45.3790   63.5710 N.3    60  ASP60      -0.1239
     39  CA        42.6360   46.2010   64.7570 C.3    60  ASP60       0.1674
     40  C         43.5790   45.6230   65.7950 C.2    60  ASP60       0.2266
     41  O         43.1380   45.0130   66.7590 O.2    60  ASP60      -0.2867
     42  CB        41.2450   46.4420   65.3590 C.3    60  ASP60       0.1410
     43  CG        41.2920   47.1490   66.6920 C.2    60  ASP60       0.3668
     44  OD1       42.1690   48.0150   66.8790 O.co2  60  ASP60      -0.2456
     45  OD2       40.4350   46.8440   67.5530 O.co2  60  ASP60      -0.2456
     46  N         46.1170   47.6770   67.0480 N.3    62  LYS62      -0.1245
     47  CA        46.6740   48.8660   67.6900 C.3    62  LYS62       0.1561
     48  C         48.1840   48.7740   67.9610 C.2    62  LYS62       0.2260
     49  O         48.6190   48.7770   69.1150 O.2    62  LYS62      -0.2867
     50  CB        45.9390   49.1390   69.0060 C.3    62  LYS62       0.0271
     51  CG        44.4590   49.4240   68.8660 C.3    62  LYS62       0.0035
     52  CD        43.8110   49.6800   70.2290 C.3    62  LYS62       0.0206
     53  CE        42.3290   49.9660   70.0920 C.3    62  LYS62       0.1093
     54  NZ        41.6330   48.8560   69.3940 N.3    62  LYS62      -0.1314
     55  N         45.4730   49.5630   62.2060 N.3    86  ASN86      -0.1240
     56  CA        45.6290   50.3770   63.4010 C.3    86  ASN86       0.1653
     57  C         47.0470   50.6560   63.8880 C.2    86  ASN86       0.2266
     58  O         47.9920   49.9560   63.5430 O.2    86  ASN86      -0.2867
     59  CB        44.8680   49.7130   64.5480 C.3    86  ASN86       0.1155
     60  CG        43.9020   50.6420   65.1900 C.2    86  ASN86       0.2627
     61  OD1       43.9610   51.8510   64.9720 O.2    86  ASN86      -0.2716
     62  ND2       43.0030   50.1030   65.9880 N.am   86  ASN86      -0.0877
     63  N         45.0930   55.4640   66.9560 N.3   116  VAL116     -0.1245
     64  CA        44.2010   55.5130   68.0880 C.3   116  VAL116      0.1561
     65  C         44.6560   56.6870   68.9450 C.2   116  VAL116      0.2260
     66  O         45.8580   56.8540   69.1800 O.2   116  VAL116     -0.2867
     67  CB        44.3020   54.2160   68.9220 C.3   116  VAL116      0.0252
     68  CG1       43.4710   54.3430   70.1950 C.3   116  VAL116      0.0019
     69  CG2       43.8410   53.0240   68.0880 C.3   116  VAL116      0.0019
     70  N         42.6230   58.5480   72.2450 N.3   118  VAL118     -0.1231
     71  CA        42.3090   58.1290   73.6010 C.3   118  VAL118      0.1692
     72  C         41.1840   57.1030   73.5200 C.2   118  VAL118      0.2592
     73  O         40.1480   57.3580   72.9090 O.2   118  VAL118     -0.2718
     74  CB        41.9010   59.3350   74.4750 C.3   118  VAL118      0.0266
     75  CG1       41.6410   58.8870   75.9160 C.3   118  VAL118      0.0020
     76  CG2       43.0110   60.3860   74.4370 C.3   118  VAL118      0.0020
     77  N         41.4160   55.9290   74.1030 N.am  119  LEU119     -0.1966
     78  CA        40.4360   54.8530   74.0870 C.3   119  LEU119      0.1728
     79  C         39.1080   55.3200   74.6750 C.2   119  LEU119      0.2617
     80  O         39.0690   55.8970   75.7630 O.2   119  LEU119     -0.2715
     81  CB        40.9780   53.6520   74.8600 C.3   119  LEU119      0.0311
     82  CG        42.2660   53.0880   74.2480 C.3   119  LEU119      0.0022
     83  CD1       42.9170   52.0680   75.2050 C.3   119  LEU119      0.0001
     84  CD2       41.9400   52.4710   72.8840 C.3   119  LEU119      0.0001
     85  N         38.0270   55.0620   73.9420 N.am  120  THR120     -0.1937
     86  CA        36.6830   55.4670   74.3510 C.3   120  THR120      0.2028
     87  C         36.2810   54.9130   75.7070 C.2   120  THR120      0.2642
     88  O         35.2190   55.2370   76.2210 O.2   120  THR120     -0.2714
     89  CB        35.6320   55.0060   73.3360 C.3   120  THR120      0.1808
     90  OG1       35.5800   53.5760   73.3260 O.3   120  THR120     -0.2208
     91  CG2       35.9850   55.5000   71.9460 C.3   120  THR120      0.0379
     92  N         37.1380   54.0880   76.2890 N.am  121  SER121     -0.1949
     93  CA        36.8480   53.4960   77.5810 C.3   121  SER121      0.1924
     94  C         37.4200   54.3210   78.7260 C.2   121  SER121      0.2314
     95  O         37.2180   53.9880   79.8930 O.2   121  SER121     -0.2863
     96  CB        37.4330   52.0880   77.6430 C.3   121  SER121      0.2116
     97  OG        38.8490   52.1400   77.5750 O.3   121  SER121     -0.2180
     98  N         41.4270   57.2840   65.4670 N.3   156  VAL156     -0.1231
     99  CA        40.3690   56.5890   66.1810 C.3   156  VAL156      0.1692
    100  C         40.0970   57.4190   67.4220 C.2   156  VAL156      0.2592
    101  O         41.0170   57.7800   68.1530 O.2   156  VAL156     -0.2718
    102  CB        40.7780   55.1610   66.6140 C.3   156  VAL156      0.0266
    103  CG1       39.7320   54.5800   67.5560 C.3   156  VAL156      0.0020
    104  CG2       40.8970   54.2730   65.4030 C.3   156  VAL156      0.0020
    105  N         38.8300   57.7310   67.6510 N.am  157  CYS157     -0.1970
    106  CA        38.4580   58.5330   68.7990 C.3   157  CYS157      0.1712
    107  C         36.9970   58.3140   69.1140 C.2   157  CYS157      0.2296
    108  O         36.3260   57.4990   68.4780 O.2   157  CYS157     -0.2864
    109  CB        38.6970   60.0150   68.5060 C.3   157  CYS157      0.0983
    110  SG        37.7050   60.6670   67.1380 S.3   157  CYS157     -0.0798
    111  N         34.4930   54.2720   67.9820 N.3   178  PRO178     -0.2102
    112  CA        33.8930   53.1220   68.6620 C.3   178  PRO178      0.1504
    113  C         33.0760   53.7520   69.7850 C.2   178  PRO178      0.2576
    114  O         32.7810   54.9400   69.7320 O.2   178  PRO178     -0.2718
    115  CB        35.1070   52.3590   69.1910 C.3   178  PRO178      0.0282
    116  CG        36.2150   52.7880   68.2660 C.3   178  PRO178      0.0208
    117  CD        35.9560   54.2540   68.1310 C.3   178  PRO178      0.0893
    118  N         32.7410   52.9870   70.8130 N.am  179  GLY179     -0.1943
    119  CA        31.9620   53.5540   71.8950 C.3   179  GLY179      0.2014
    120  C         30.5680   53.9510   71.4290 C.2   179  GLY179      0.2639
    121  O         30.0340   54.9860   71.8460 O.2   179  GLY179     -0.2714
    122  N         29.9780   53.1310   70.5610 N.am  180  ILE180     -0.1963
    123  CA        28.6440   53.4010   70.0480 C.3   180  ILE180      0.1727
    124  C         27.5940   52.5570   70.7650 C.2   180  ILE180      0.2616
    125  O         27.6020   51.3230   70.6900 O.2   180  ILE180     -0.2715
    126  CB        28.5660   53.1320   68.5390 C.3   180  ILE180      0.0290
    127  CG1       29.6860   53.8970   67.8210 C.3   180  ILE180      0.0022
    128  CG2       27.2020   53.5620   68.0020 C.3   180  ILE180      0.0023
    129  CD1       29.6640   55.3930   68.0440 C.3   180  ILE180      0.0001
    130  N         26.6940   53.2340   71.4710 N.am  181  ARG181     -0.1977
    131  CA        25.6300   52.5590   72.2130 C.3   181  ARG181      0.1597
    132  C         24.2330   52.9830   71.7650 C.2   181  ARG181      0.2287
    133  O         23.8330   54.1310   71.9470 O.2   181  ARG181     -0.2864
    134  CB        25.7400   52.8510   73.7140 C.3   181  ARG181      0.0334
    135  CG        26.9390   52.2600   74.4430 C.3   181  ARG181      0.0492
    136  CD        26.9070   50.7450   74.4910 C.3   181  ARG181      0.2205
    137  NE        27.6960   50.2030   73.4000 N.pl3 181  ARG181     -0.0865
    138  CZ        28.7830   49.4540   73.5510 C.cat 181  ARG181      0.5346
    139  NH1       29.2330   49.1310   74.7550 N.pl3 181  ARG181      0.1354
    140  NH2       29.4260   49.0380   72.4800 N.pl3 181  ARG181      0.1354
    141  N         32.6200   51.0140   78.3740 N.3   190  GLN190     -0.1245
    142  CA        32.6600   52.1380   77.4380 C.3   190  GLN190      0.1566
    143  C         32.3370   53.4240   78.2300 C.2   190  GLN190      0.2260
    144  O         31.4480   53.4150   79.0760 O.2   190  GLN190     -0.2867
    145  CB        31.6080   51.8820   76.3480 C.3   190  GLN190      0.0367
    146  CG        31.9960   52.2350   74.9240 C.3   190  GLN190      0.0905
    147  CD        33.2810   51.5750   74.4630 C.2   190  GLN190      0.2608
    148  OE1       34.3640   51.9780   74.8660 O.2   190  GLN190     -0.2717
    149  NE2       33.1650   50.5550   73.6140 N.am  190  GLN190     -0.0878
    150  N         32.3480   52.1860   65.0010 N.3   208  VAL208     -0.1231
    151  CA        32.5720   50.8100   65.3750 C.3   208  VAL208      0.1692
    152  C         31.5600   50.3680   66.4180 C.2   208  VAL208      0.2592
    153  O         31.4570   50.9570   67.5020 O.2   208  VAL208     -0.2718
    154  CB        33.9940   50.6210   65.9060 C.3   208  VAL208      0.0266
    155  CG1       34.2140   49.1720   66.3220 C.3   208  VAL208      0.0020
    156  CG2       34.9790   51.0140   64.8280 C.3   208  VAL208      0.0020
    157  N         30.8100   49.3270   66.0690 N.am  209  ILE209     -0.1966
    158  CA        29.7920   48.7840   66.9500 C.3   209  ILE209      0.1727
    159  C         30.0810   47.3120   67.1930 C.2   209  ILE209      0.2617
    160  O         30.1610   46.5220   66.2500 O.2   209  ILE209     -0.2715
    161  CB        28.3880   48.9240   66.3230 C.3   209  ILE209      0.0290
    162  CG1       28.2250   50.3250   65.7280 C.3   209  ILE209      0.0022
    163  CG2       27.3190   48.7080   67.3930 C.3   209  ILE209      0.0023
    164  CD1       26.9000   50.5510   65.0380 C.3   209  ILE209      0.0001
    165  N         30.2390   46.9530   68.4640 N.am  210  GLY210     -0.1940
    166  CA        30.5160   45.5740   68.8160 C.3   210  GLY210      0.2014
    167  C         29.3470   44.8410   69.4640 C.2   210  GLY210      0.2638
    168  O         28.4910   44.2860   68.7720 O.2   210  GLY210     -0.2714
    169  N         29.3070   44.8430   70.7930 N.am  211  ARG211     -0.1977
    170  CA        28.2650   44.1570   71.5440 C.3   211  ARG211      0.1597
    171  C         26.8190   44.5510   71.2230 C.2   211  ARG211      0.2287
    172  O         25.9230   43.6950   71.2120 O.2   211  ARG211     -0.2864
    173  CB        28.5330   44.3030   73.0430 C.3   211  ARG211      0.0334
    174  CG        29.6080   43.3600   73.5460 C.3   211  ARG211      0.0492
    175  CD        30.1940   43.8170   74.8750 C.3   211  ARG211      0.2205
    176  NE        30.9980   45.0320   74.7430 N.pl3 211  ARG211     -0.0865
    177  CZ        31.7440   45.5420   75.7200 C.cat 211  ARG211      0.5346
    178  NH1       31.7880   44.9410   76.8990 N.pl3 211  ARG211      0.1354
    179  NH2       32.4490   46.6470   75.5230 N.pl3 211  ARG211      0.1354
@<TRIPOS>BOND
     1    27    28    1
     2    28    31    1
     3    28    29    1
     4    31    32    1
     5    29    30    2
     6    33    32   ar
     7    33    35   ar
     8    32    34   ar
     9    14    15    1
    10    55    56    1
    11    35    37   ar
    12    34    36   ar
    13    15    16    1
    14    15    18    1
    15    16    17    2
    16    37    36   ar
    17    56    57    1
    18    56    59    1
    19    18    19    1
    20    58    57    2
    21    38    39    1
    22    19    20    1
    23    59    60    1
    24    39    42    1
    25    39    40    1
    26   156   154    1
    27    61    60    2
    28   150   151    1
    29   164   162    1
    30    20    21    1
    31    60    62   am
    32     1     2    1
    33    42    43    1
    34   151   154    1
    35   151   152    1
    36   104   102    1
    37    98    99    1
    38   162   161    1
    39    40    41    2
    40     2     3    1
    41     2     5    1
    42   154   155    1
    43    23    24    1
    44   157   152   am
    45   157   158    1
    46     3     4    2
    47    99   102    1
    48    99   100    1
    49   160   159    2
    50   161   158    1
    51   161   163    1
    52   152   153    2
    53    21    22    1
    54   102   103    1
    55    43    44   ar
    56    43    45   ar
    57    24    25    1
    58   158   159    1
    59    63    64    1
    60    46    47    1
    61    26    25    2
    62   110   109    1
    63   159   165   am
    64   100   105   am
    65   100   101    2
    66   105   106    1
    67    47    48    1
    68    47    50    1
    69   127   129    1
    70   127   126    1
    71    48    49    2
    72   111   117    1
    73   111   112    1
    74   128   126    1
    75    69    67    1
    76    64    67    1
    77    64    65    1
    78     6     7    1
    79   117   116    1
    80   116   115    1
    81   165   166    1
    82   108   107    2
    83   109   106    1
    84   126   123    1
    85   112   115    1
    86   112   113    1
    87    12    11   ar
    88   168   167    2
    89   106   107    1
    90   166   167    1
    91    51    50    1
    92    51    52    1
    93    67    68    1
    94    65    66    2
    95     7     8    1
    96     7    10    1
    97    54    53    1
    98   167   169   am
    99   114   113    2
   100   113   118   am
   101    11    10    1
   102    11    13   ar
   103     8     9    2
   104   123   122    1
   105   123   124    1
   106    53    52    1
   107   122   120   am
   108   125   124    2
   109   124   130   am
   110   169   170    1
   111   118   119    1
   112   172   171    2
   113   171   170    1
   114   120   121    2
   115   120   119    1
   116   130   131    1
   117   170   173    1
   118   132   133    2
   119   132   131    1
   120    91    89    1
   121   131   134    1
   122    70    71    1
   123   140   138    1
   124    84    82    1
   125    73    72    2
   126   173   174    1
   127    90    89    1
   128    89    86    1
   129   137   138    2
   130   137   136    1
   131    72    71    1
   132    72    77   am
   133   174   175    1
   134   138   139    1
   135    71    74    1
   136   149   147   am
   137   134   135    1
   138    85    86    1
   139    85    79   am
   140    78    77    1
   141    78    79    1
   142    78    81    1
   143    82    81    1
   144    82    83    1
   145    86    87    1
   146    76    74    1
   147   135   136    1
   148   147   148    2
   149   147   146    1
   150    74    75    1
   151    79    80    2
   152   176   175    1
   153   176   177    2
   154   146   145    1
   155   179   177    1
   156    87    88    2
   157    87    92   am
   158   177   178    1
   159    92    93    1
   160   145   142    1
   161   142   143    1
   162   142   141    1
   163    97    96    1
   164    93    96    1
   165    93    94    1
   166   143   144    2
   167    94    95    2
