@<TRIPOS>MOLECULE
tmp/1ej0A00.pdb
 188 183 0 0 0
SMALL
GASTEIGER

@<TRIPOS>ATOM
      1  N         -4.2770   49.0660   12.8120 N.3     4  SER4       -0.1217
      2  CA        -4.6220   48.0940   13.8440 C.3     4  SER4        0.1889
      3  C         -3.7590   48.1900   15.0680 C.2     4  SER4        0.2288
      4  O         -2.6580   48.7650   15.0390 O.2     4  SER4       -0.2866
      5  CB        -4.4670   46.6940   13.2680 C.3     4  SER4        0.2089
      6  OG        -3.0850   46.4130   12.9840 O.3     4  SER4       -0.2183
      7  N         -2.0740   45.7940   16.2040 N.3     6  ALA6       -0.1245
      8  CA        -0.7980   45.1310   15.8570 C.3     6  ALA6        0.1562
      9  C          0.1880   46.0900   15.1930 C.2     6  ALA6        0.2260
     10  O          1.4000   46.0280   15.4600 O.2     6  ALA6       -0.2867
     11  CB        -1.0190   43.9190   14.9510 C.3     6  ALA6        0.0290
     12  N          1.7400   48.1330   17.8380 N.3     9  LYS9       -0.1245
     13  CA         2.7380   47.4350   18.6540 C.3     9  LYS9        0.1561
     14  C          4.0860   47.4140   17.9130 C.2     9  LYS9        0.2260
     15  O          5.1420   47.6180   18.5360 O.2     9  LYS9       -0.2867
     16  CB         2.3480   45.9820   18.9050 C.3     9  LYS9        0.0271
     17  CG         1.0570   45.7830   19.6640 C.3     9  LYS9        0.0035
     18  CD         0.7750   44.2580   19.7070 C.3     9  LYS9        0.0206
     19  CE        -0.6780   43.9330   19.9940 C.3     9  LYS9        0.1093
     20  NZ        -0.9090   42.4470   20.0910 N.3     9  LYS9       -0.1314
     21  N          7.8600   37.8400    7.4070 N.3    28  ASP28      -0.1239
     22  CA         6.7370   38.1860    8.3220 C.3    28  ASP28       0.1674
     23  C          5.8630   36.9630    8.4790 C.2    28  ASP28       0.2266
     24  O          5.1540   36.5820    7.5510 O.2    28  ASP28      -0.2867
     25  CB         5.9570   39.3560    7.6910 C.3    28  ASP28       0.1410
     26  CG         4.8410   39.8590    8.5970 C.2    28  ASP28       0.3668
     27  OD1        4.8520   39.4830    9.7960 O.co2  28  ASP28      -0.2456
     28  OD2        3.9860   40.6540    8.1050 O.co2  28  ASP28      -0.2456
     29  N          2.7170   34.8800   10.3040 N.3    30  GLY30      -0.1210
     30  CA         1.4060   35.1710   10.9260 C.3    30  GLY30       0.1956
     31  C          1.0410   36.6180   10.5620 C.2    30  GLY30       0.2612
     32  O          0.6170   37.4160   11.3950 O.2    30  GLY30      -0.2717
     33  N          1.1770   36.9270    9.2690 N.am   31  ALA31      -0.1965
     34  CA         1.0260   38.2830    8.7580 C.3    31  ALA31       0.1728
     35  C         -0.3530   38.8630    8.6690 C.2    31  ALA31       0.2616
     36  O         -0.4900   40.0840    8.5980 O.2    31  ALA31      -0.2715
     37  CB         1.5970   38.3780    7.3320 C.3    31  ALA31       0.0334
     38  N         -1.3760   38.0420    8.5540 N.am   32  ALA32      -0.1964
     39  CA        -2.7310   38.5740    8.3450 C.3    32  ALA32       0.1713
     40  C         -3.3290   39.3260    9.5290 C.2    32  ALA32       0.2458
     41  O         -3.1250   38.9190   10.6860 O.2    32  ALA32      -0.2730
     42  CB        -3.6500   37.4560    7.9140 C.3    32  ALA32       0.0333
     43  N         -4.1010   40.4090    9.2750 N.am   33  PRO33      -0.2716
     44  CA        -4.4790   41.0050    7.9800 C.3    33  PRO33       0.1536
     45  C         -3.4960   41.9300    7.2990 C.2    33  PRO33       0.2599
     46  O         -3.8380   42.5070    6.2510 O.2    33  PRO33      -0.2715
     47  CB        -5.8240   41.7270    8.3040 C.3    33  PRO33       0.0310
     48  CG        -5.5850   42.2440    9.7090 C.3    33  PRO33       0.0237
     49  CD        -4.9000   40.9930   10.3750 C.3    33  PRO33       0.0939
     50  N         -2.3070   42.0860    7.8780 N.am   34  GLY34      -0.1941
     51  CA        -1.2720   42.8660    7.2180 C.3    34  GLY34       0.2014
     52  C         -0.6830   44.0810    7.9040 C.2    34  GLY34       0.2639
     53  O          0.0320   44.8210    7.2570 O.2    34  GLY34      -0.2714
     54  N         -0.9700   44.3050    9.1840 N.am   35  GLY35      -0.1939
     55  CA        -0.4440   45.4680    9.8540 C.3    35  GLY35       0.2014
     56  C          1.0620   45.5670    9.9250 C.2    35  GLY35       0.2638
     57  O          1.6410   46.6240    9.7020 O.2    35  GLY35      -0.2714
     58  N          1.6970   44.4670   10.3310 N.am   36  TRP36      -0.1973
     59  CA         3.1400   44.4720   10.4390 C.3    36  TRP36       0.1640
     60  C          3.8040   44.6710    9.0780 C.2    36  TRP36       0.2290
     61  O          4.7180   45.4700    8.9790 O.2    36  TRP36      -0.2864
     62  CB         3.5930   43.1840   11.1020 C.3    36  TRP36       0.0576
     63  CG         3.4500   43.2230   12.5960 C.ar   36  TRP36       0.0006
     64  CD1        2.6260   44.0180   13.3590 C.ar   36  TRP36       0.0946
     65  CD2        4.2080   42.4110   13.5150 C.ar   36  TRP36       0.0152
     66  NE1        2.8380   43.7540   14.7080 N.ar   36  TRP36      -0.2442
     67  CE2        3.8110   42.7740   14.8180 C.ar   36  TRP36       0.0810
     68  CE3        5.2040   41.4280   13.3320 C.ar   36  TRP36       0.0012
     69  CZ2        4.3850   42.1760   15.9730 C.ar   36  TRP36       0.0191
     70  CZ3        5.7740   40.8300   14.4710 C.ar   36  TRP36       0.0001
     71  CH2        5.3670   41.2130   15.7640 C.ar   36  TRP36       0.0015
     72  N          3.5790   35.2530    5.4520 N.3    53  CYS53      -0.1221
     73  CA         2.7950   34.0130    5.5210 C.3    53  CYS53       0.1808
     74  C          1.6950   34.0370    6.5760 C.2    53  CYS53       0.2601
     75  O          1.9030   34.6200    7.6900 O.2    53  CYS53      -0.2717
     76  CB         3.7160   32.8390    5.8870 C.3    53  CYS53       0.0970
     77  SG         2.8540   31.2650    6.2890 S.3    53  CYS53      -0.0800
     78  N          0.5120   33.5070    6.2310 N.am   54  ASP54      -0.1959
     79  CA        -0.5460   33.3280    7.2330 C.3    54  ASP54       0.1840
     80  C         -1.4580   32.2430    6.6930 C.2    54  ASP54       0.2622
     81  O         -1.3990   31.9330    5.4920 O.2    54  ASP54      -0.2715
     82  CB        -1.3950   34.6130    7.4650 C.3    54  ASP54       0.1450
     83  CG        -2.1230   34.6150    8.7990 C.2    54  ASP54       0.3671
     84  OD1       -3.0900   33.8350    9.0120 O.co2  54  ASP54      -0.2456
     85  OD2       -1.7440   35.4140    9.6490 O.co2  54  ASP54      -0.2456
     86  N         -2.1210   31.5710    7.6140 N.am   55  LEU55      -0.1963
     87  CA        -3.1730   30.5830    7.2830 C.3    55  LEU55       0.1728
     88  C         -4.3480   31.2890    6.5880 C.2    55  LEU55       0.2616
     89  O         -5.0390   30.6780    5.7230 O.2    55  LEU55      -0.2715
     90  CB        -3.7190   29.9340    8.5630 C.3    55  LEU55       0.0311
     91  CG        -3.0770   28.7370    9.2420 C.3    55  LEU55       0.0022
     92  CD1       -3.4600   28.7690   10.7170 C.3    55  LEU55       0.0001
     93  CD2       -3.5220   27.4470    8.5350 C.3    55  LEU55       0.0001
     94  N         -4.6000   32.5380    6.9830 N.am   56  LEU56      -0.1977
     95  CA        -5.7010   33.3530    6.4360 C.3    56  LEU56       0.1596
     96  C         -5.3030   34.1880    5.2410 C.2    56  LEU56       0.2287
     97  O         -4.1390   34.5670    5.0810 O.2    56  LEU56      -0.2864
     98  CB        -6.2350   34.3300    7.4990 C.3    56  LEU56       0.0297
     99  CG        -6.8070   33.6940    8.7670 C.3    56  LEU56       0.0022
    100  CD1       -7.0190   34.7800    9.8150 C.3    56  LEU56       0.0001
    101  CD2       -8.0870   32.9490    8.4300 C.3    56  LEU56       0.0001
    102  N         -0.8160   29.6370    3.8090 N.3    69  GLY69      -0.1210
    103  CA        -0.7400   28.2210    4.1230 C.3    69  GLY69       0.1956
    104  C         -0.4200   28.0720    5.5850 C.2    69  GLY69       0.2612
    105  O         -0.1620   29.0800    6.3010 O.2    69  GLY69      -0.2717
    106  N         -0.4530   26.8160    6.0260 N.am   70  ASP70      -0.1959
    107  CA        -0.1680   26.4480    7.4000 C.3    70  ASP70       0.1840
    108  C          1.3510   26.3510    7.5680 C.2    70  ASP70       0.2622
    109  O          2.0300   25.5060    6.9600 O.2    70  ASP70      -0.2715
    110  CB        -0.8360   25.1080    7.6910 C.3    70  ASP70       0.1450
    111  CG        -0.8870   24.7960    9.1500 C.2    70  ASP70       0.3671
    112  OD1       -0.0130   25.2810    9.9010 O.co2  70  ASP70      -0.2456
    113  OD2       -1.8080   24.0380    9.5440 O.co2  70  ASP70      -0.2456
    114  N          1.9050   27.2330    8.4050 N.am   71  PHE71      -0.1960
    115  CA         3.3570   27.2550    8.5770 C.3    71  PHE71       0.1771
    116  C          3.9030   25.9880    9.2270 C.2    71  PHE71       0.2619
    117  O          5.1040   25.6920    9.1470 O.2    71  PHE71      -0.2715
    118  CB         3.7160   28.4820    9.4030 C.3    71  PHE71       0.0574
    119  CG         5.1880   28.7460    9.4990 C.ar   71  PHE71      -0.0200
    120  CD1        5.9390   29.1300    8.3830 C.ar   71  PHE71      -0.0042
    121  CD2        5.8230   28.6250   10.7300 C.ar   71  PHE71      -0.0042
    122  CE1        7.3180   29.3940    8.5180 C.ar   71  PHE71      -0.0003
    123  CE2        7.1900   28.8850   10.8700 C.ar   71  PHE71      -0.0003
    124  CZ         7.9410   29.2700    9.7650 C.ar   71  PHE71      -0.0000
    125  N          3.0080   25.2140    9.8350 N.am   72  ARG72      -0.1977
    126  CA         3.4150   23.9540   10.4750 C.3    72  ARG72       0.1597
    127  C          3.7630   22.8880    9.4230 C.2    72  ARG72       0.2287
    128  O          4.3800   21.8720    9.7270 O.2    72  ARG72      -0.2864
    129  CB         2.2800   23.4800   11.4020 C.3    72  ARG72       0.0334
    130  CG         2.1070   24.3870   12.6420 C.3    72  ARG72       0.0492
    131  CD         0.8480   24.1030   13.4710 C.3    72  ARG72       0.2205
    132  NE        -0.3770   24.2570   12.6810 N.pl3  72  ARG72      -0.0865
    133  CZ        -1.6060   24.0000   13.1390 C.cat  72  ARG72       0.5346
    134  NH1       -2.6570   24.1730   12.3470 N.pl3  72  ARG72       0.1354
    135  NH2       -1.7850   23.5590   14.3900 N.pl3  72  ARG72       0.1354
    136  N          4.4040   37.2210   14.4870 N.3    95  ASP95      -0.1225
    137  CA         3.2920   37.6020   15.3570 C.3    95  ASP95       0.1805
    138  C          2.3040   36.4480   15.3800 C.2    95  ASP95       0.2598
    139  O          1.1170   36.6420   15.6970 O.2    95  ASP95      -0.2718
    140  CB         2.6090   38.8820   14.8510 C.3    95  ASP95       0.1424
    141  CG         1.7710   39.5600   15.9290 C.2    95  ASP95       0.3668
    142  OD1        2.1200   39.4400   17.1500 O.co2  95  ASP95      -0.2456
    143  OD2        0.7990   40.2420   15.5470 O.co2  95  ASP95      -0.2456
    144  N          2.7670   35.2320   15.0820 N.am   96  MET96      -0.1965
    145  CA         1.8480   34.0820   15.0730 C.3    96  MET96       0.1736
    146  C          1.3330   33.7580   16.4820 C.2    96  MET96       0.2616
    147  O          2.0670   33.8610   17.4780 O.2    96  MET96      -0.2715
    148  CB         2.5340   32.7930   14.5380 C.3    96  MET96       0.0427
    149  CG         2.8990   32.8180   13.1010 C.3    96  MET96       0.0599
    150  SD         3.5830   31.2320   12.4810 S.3    96  MET96      -0.1393
    151  CE         5.1140   31.1610   13.3690 C.3    96  MET96       0.0692
    152  N          0.0770   33.3340   16.5660 N.am   97  ALA97      -0.1964
    153  CA        -0.4970   32.9110   17.8320 C.3    97  ALA97       0.1713
    154  C         -1.6000   31.9490   17.3760 C.2    97  ALA97       0.2458
    155  O         -2.2180   32.1240   16.3290 O.2    97  ALA97      -0.2730
    156  CB        -1.0750   34.0910   18.5790 C.3    97  ALA97       0.0333
    157  N         -1.8210   30.8850   18.1490 N.am   98  PRO98      -0.2716
    158  CA        -2.8100   29.8590   17.8420 C.3    98  PRO98       0.1536
    159  C         -4.1790   30.2630   18.2320 C.2    98  PRO98       0.2598
    160  O         -4.3790   31.2800   18.9320 O.2    98  PRO98      -0.2715
    161  CB        -2.3070   28.6730   18.6710 C.3    98  PRO98       0.0310
    162  CG        -1.8780   29.3250   19.9110 C.3    98  PRO98       0.0237
    163  CD        -1.1850   30.6270   19.4400 C.3    98  PRO98       0.0939
    164  N         -5.1240   29.4570   17.7420 N.am   99  ASN99      -0.1973
    165  CA        -6.5170   29.6150   18.0910 C.3    99  ASN99       0.1688
    166  C         -6.4460   29.2040   19.5670 C.2    99  ASN99       0.2292
    167  O         -5.9150   28.1500   19.8830 O.2    99  ASN99      -0.2864
    168  CB        -7.3840   28.6580   17.2610 C.3    99  ASN99       0.1181
    169  CG        -6.8500   27.2370   17.2460 C.2    99  ASN99       0.2629
    170  OD1       -5.6850   26.9990   16.9060 O.2    99  ASN99      -0.2716
    171  ND2       -7.7090   26.2750   17.5970 N.am   99  ASN99      -0.0877
    172  N          4.4890   27.0560   17.6560 N.3   114  LEU114     -0.1245
    173  CA         4.6470   28.0190   16.5690 C.3   114  LEU114      0.1561
    174  C          5.8890   28.8780   16.7480 C.2   114  LEU114      0.2260
    175  O          6.5790   29.1360   15.7450 O.2   114  LEU114     -0.2867
    176  CB         3.4150   28.9220   16.4740 C.3   114  LEU114      0.0270
    177  CG         2.0550   28.2380   16.2170 C.3   114  LEU114      0.0019
    178  CD1        0.9360   29.2930   16.2740 C.3   114  LEU114      0.0001
    179  CD2        2.0930   27.5890   14.8490 C.3   114  LEU114      0.0001
    180  N          6.4400   37.1680   19.0280 N.3   135  LYS135     -0.1245
    181  CA         5.3820   37.2610   20.0610 C.3   135  LYS135      0.1561
    182  C          5.4550   35.9490   20.8510 C.2   135  LYS135      0.2260
    183  O          5.3720   34.8500   20.2720 O.2   135  LYS135     -0.2867
    184  CB         4.0050   37.3380   19.3900 C.3   135  LYS135      0.0271
    185  CG         2.8350   37.5360   20.3920 C.3   135  LYS135      0.0035
    186  CD         1.5290   36.8180   19.9130 C.3   135  LYS135      0.0206
    187  CE         0.7340   37.5280   18.8540 C.3   135  LYS135      0.1093
    188  NZ         0.1820   38.8600   19.2550 N.3   135  LYS135     -0.1314
@<TRIPOS>BOND
     1   102   103    1
     2   103   104    1
     3    97    96    2
     4    96    95    1
     5    72    73    1
     6    81    80    2
     7    73    76    1
     8    73    74    1
     9   104   106   am
    10   104   105    2
    11    89    88    2
    12    76    77    1
    13   106   107    1
    14    78    74   am
    15    78    79    1
    16    46    45    2
    17    95    94    1
    18    95    98    1
    19    74    75    2
    20    88    94   am
    21    88    87    1
    22    80    79    1
    23    80    86   am
    24   109   108    2
    25    51    50    1
    26    51    52    1
    27    79    82    1
    28    53    52    2
    29    87    86    1
    30    87    90    1
    31    45    50   am
    32    45    44    1
    33    37    34    1
    34   107   108    1
    35   107   110    1
    36    21    22    1
    37    82    83    1
    38    98    99    1
    39    24    23    2
    40   108   114   am
    41   110   111    1
    42    25    22    1
    43    25    26    1
    44    52    54   am
    45    42    39    1
    46    44    47    1
    47    44    43    1
    48    28    26   ar
    49    47    48    1
    50    22    23    1
    51    39    38    1
    52    39    40    1
    53   120   122   ar
    54   120   119   ar
    55   114   115    1
    56   101    99    1
    57   122   124   ar
    58    93    91    1
    59    38    35   am
    60    90    91    1
    61   115   116    1
    62   115   118    1
    63    26    27   ar
    64    36    35    2
    65    35    34    1
    66    34    33    1
    67    99   100    1
    68    83    84   ar
    69    83    85   ar
    70    61    60    2
    71    60    59    1
    72   117   116    2
    73   111   113   ar
    74   111   112   ar
    75    54    55    1
    76   116   125   am
    77    91    92    1
    78    33    31   am
    79    43    40   am
    80    43    49    1
    81   118   119    1
    82   127   128    2
    83   127   126    1
    84   119   121   ar
    85    40    41    2
    86    57    56    2
    87    48    49    1
    88   124   123   ar
    89   125   126    1
    90    55    56    1
    91    56    58   am
    92    29    30    1
    93    58    59    1
    94    59    62    1
    95   126   129    1
    96    31    30    1
    97    31    32    2
    98   121   123   ar
    99    62    63    1
   100   129   130    1
   101   134   133    1
   102   150   149    1
   103   150   151    1
   104    63    64   ar
   105    63    65   ar
   106   130   131    1
   107   132   133    2
   108   132   131    1
   109     1     2    1
   110     6     5    1
   111   149   148    1
   112   133   135    1
   113     5     2    1
   114    68    65   ar
   115    68    70   ar
   116    64    66   ar
   117    65    67   ar
   118     2     3    1
   119    70    71   ar
   120   136   137    1
   121   148   145    1
   122    66    67   ar
   123    67    69   ar
   124   179   177    1
   125   140   137    1
   126   140   141    1
   127    11     8    1
   128     4     3    2
   129   145   144    1
   130   145   146    1
   131   144   138   am
   132     9    10    2
   133     9     8    1
   134   137   138    1
   135   138   139    2
   136   143   141   ar
   137   175   174    2
   138    71    69   ar
   139     8     7    1
   140   141   142   ar
   141   177   178    1
   142   177   176    1
   143   155   154    2
   144   176   173    1
   145   146   152   am
   146   146   147    2
   147   152   153    1
   148   173   174    1
   149   173   172    1
   150   170   169    2
   151   169   168    1
   152   169   171   am
   153   168   165    1
   154   154   153    1
   155   154   157   am
   156   164   165    1
   157   164   159   am
   158   153   156    1
   159    12    13    1
   160   158   157    1
   161   158   159    1
   162   158   161    1
   163    14    15    2
   164    14    13    1
   165   165   166    1
   166   157   163    1
   167   159   160    2
   168    13    16    1
   169   161   162    1
   170   187   188    1
   171   187   186    1
   172    16    17    1
   173   180   181    1
   174   184   181    1
   175   184   185    1
   176   163   162    1
   177   166   167    2
   178    17    18    1
   179    18    19    1
   180   186   185    1
   181    19    20    1
   182   181   182    1
   183   183   182    2
