@<TRIPOS>MOLECULE
tmp/1ej3A00.pdb
 274 269 0 0 0
SMALL
GASTEIGER

@<TRIPOS>ATOM
      1  N         58.8720   17.7490   19.2340 N.3    14  HIS14      -0.1241
      2  CA        59.4860   16.8960   18.2300 C.3    14  HIS14       0.1621
      3  C         58.8730   15.5020   18.1450 C.2    14  HIS14       0.2264
      4  O         58.9790   14.8430   17.1180 O.2    14  HIS14      -0.2867
      5  CB        60.9890   16.8360   18.4690 C.3    14  HIS14       0.0745
      6  CG        61.6760   18.1210   18.1390 C.ar   14  HIS14       0.0817
      7  ND1       61.8810   18.5390   16.8400 N.ar   14  HIS14      -0.2268
      8  CD2       62.1130   19.1290   18.9310 C.ar   14  HIS14       0.1154
      9  CE1       62.4120   19.7480   16.8480 C.ar   14  HIS14       0.1986
     10  NE2       62.5620   20.1290   18.1040 N.ar   14  HIS14      -0.2212
     11  N         56.0360   16.0490   15.8320 N.3    17  MET17      -0.1245
     12  CA        56.5260   16.1290   14.4700 C.3    17  MET17       0.1570
     13  C         56.9390   14.7620   13.9530 C.2    17  MET17       0.2261
     14  O         56.6640   14.4250   12.8060 O.2    17  MET17      -0.2867
     15  CB        57.6970   17.1120   14.3760 C.3    17  MET17       0.0387
     16  CG        57.2940   18.5670   14.5540 C.3    17  MET17       0.0595
     17  SD        55.8990   19.0450   13.4850 S.3    17  MET17      -0.1393
     18  CE        56.6560   18.9140   11.8760 C.3    17  MET17       0.0692
     19  N         53.9240   12.9940   13.0160 N.3    20  PHE20      -0.1227
     20  CA        53.3280   13.6320   11.8440 C.3    20  PHE20       0.1736
     21  C         54.0540   13.1240   10.5940 C.2    20  PHE20       0.2595
     22  O         53.4450   12.8770    9.5650 O.2    20  PHE20      -0.2718
     23  CB        53.4800   15.1540   11.9580 C.3    20  PHE20       0.0547
     24  CG        53.4180   15.8840   10.6400 C.ar   20  PHE20      -0.0202
     25  CD1       52.2120   16.0320    9.9600 C.ar   20  PHE20      -0.0042
     26  CD2       54.5720   16.4460   10.0890 C.ar   20  PHE20      -0.0042
     27  CE1       52.1530   16.7380    8.7490 C.ar   20  PHE20      -0.0003
     28  CE2       54.5240   17.1520    8.8790 C.ar   20  PHE20      -0.0003
     29  CZ        53.3110   17.2990    8.2090 C.ar   20  PHE20      -0.0000
     30  N         55.3650   12.9630   10.7050 N.am   21  LEU21      -0.1980
     31  CA        56.1780   12.4900    9.5940 C.3    21  LEU21       0.1596
     32  C         56.0580   10.9830    9.3550 C.2    21  LEU21       0.2287
     33  O         56.2000   10.5260    8.2210 O.2    21  LEU21      -0.2864
     34  CB        57.6490   12.8700    9.8240 C.3    21  LEU21       0.0297
     35  CG        57.9730   14.3730    9.8620 C.3    21  LEU21       0.0022
     36  CD1       59.4170   14.5960   10.3030 C.3    21  LEU21       0.0001
     37  CD2       57.7360   14.9740    8.4910 C.3    21  LEU21       0.0001
     38  N         61.5910   11.8340    3.7520 N.3    34  MET34      -0.1245
     39  CA        61.6210   13.2710    4.0110 C.3    34  MET34       0.1570
     40  C         61.8340   14.1030    2.7520 C.2    34  MET34       0.2261
     41  O         61.1450   15.0950    2.5100 O.2    34  MET34      -0.2867
     42  CB        62.7310   13.5850    5.0140 C.3    34  MET34       0.0387
     43  CG        62.5890   12.8480    6.3390 C.3    34  MET34       0.0595
     44  SD        61.0190   13.2270    7.1570 S.3    34  MET34      -0.1393
     45  CE        59.9480   11.9120    6.5140 C.3    34  MET34       0.0692
     46  N         58.8250   13.7290    0.4060 N.3    37  LYS37      -0.1231
     47  CA        57.7490   14.5930    0.8630 C.3    37  LYS37       0.1693
     48  C         58.0120   16.0570    0.5170 C.2    37  LYS37       0.2591
     49  O         57.1080   16.7640    0.0870 O.2    37  LYS37      -0.2718
     50  CB        57.5550   14.4340    2.3730 C.3    37  LYS37       0.0285
     51  CG        56.5260   15.3890    2.9880 C.3    37  LYS37       0.0035
     52  CD        56.4610   15.2250    4.5040 C.3    37  LYS37       0.0206
     53  CE        55.5680   16.2760    5.1680 C.3    37  LYS37       0.1093
     54  NZ        54.1200   16.0420    4.9700 N.3    37  LYS37      -0.1314
     55  N         59.2520   16.4980    0.6970 N.am   38  ALA38      -0.1980
     56  CA        59.6380   17.8730    0.4040 C.3    38  ALA38       0.1597
     57  C         59.4360   18.2270   -1.0690 C.2    38  ALA38       0.2287
     58  O         58.8210   19.2390   -1.3970 O.2    38  ALA38      -0.2864
     59  CB        61.0940   18.0960    0.7990 C.3    38  ALA38       0.0319
     60  N         55.6490   18.0670   -2.3820 N.3    41  ILE41      -0.1245
     61  CA        54.9400   19.2820   -2.0120 C.3    41  ILE41       0.1561
     62  C         55.2180   20.4670   -2.9400 C.2    41  ILE41       0.2260
     63  O         54.2970   21.0600   -3.4890 O.2    41  ILE41      -0.2867
     64  CB        55.3050   19.7180   -0.5640 C.3    41  ILE41       0.0252
     65  CG1       54.7870   18.6860    0.4420 C.3    41  ILE41       0.0019
     66  CG2       54.7290   21.1020   -0.2620 C.3    41  ILE41       0.0019
     67  CD1       55.3820   18.8370    1.8170 C.3    41  ILE41       0.0001
     68  N         65.5190   23.3230   -3.0150 N.3    56  HIS56      -0.1241
     69  CA        64.6970   22.9940   -1.8570 C.3    56  HIS56       0.1621
     70  C         65.0190   21.5990   -1.3330 C.2    56  HIS56       0.2264
     71  O         65.0000   21.3710   -0.1290 O.2    56  HIS56      -0.2867
     72  CB        63.2130   23.0850   -2.2180 C.3    56  HIS56       0.0745
     73  CG        62.2920   22.9000   -1.0490 C.ar   56  HIS56       0.0817
     74  ND1       61.6170   21.7230   -0.8110 N.ar   56  HIS56      -0.2268
     75  CD2       61.9420   23.7440   -0.0490 C.ar   56  HIS56       0.1154
     76  CE1       60.8890   21.8500    0.2840 C.ar   56  HIS56       0.1986
     77  NE2       61.0690   23.0660    0.7650 N.ar   56  HIS56      -0.2212
     78  N         66.4520   20.5000    2.3990 N.3    60  VAL60      -0.1245
     79  CA        65.7390   19.5490    3.2520 C.3    60  VAL60       0.1561
     80  C         66.6460   18.3680    3.6080 C.2    60  VAL60       0.2260
     81  O         66.6260   17.8680    4.7320 O.2    60  VAL60      -0.2867
     82  CB        64.4730   19.0030    2.5420 C.3    60  VAL60       0.0252
     83  CG1       63.8140   17.8960    3.3900 C.3    60  VAL60       0.0019
     84  CG2       63.4960   20.1350    2.2950 C.3    60  VAL60       0.0019
     85  N         69.0850   19.3980    6.1950 N.3    63  PHE63      -0.1227
     86  CA        68.3590   19.5850    7.4370 C.3    63  PHE63       0.1736
     87  C         68.2200   18.2780    8.2230 C.2    63  PHE63       0.2595
     88  O         68.7380   18.1610    9.3350 O.2    63  PHE63      -0.2718
     89  CB        66.9770   20.1640    7.1600 C.3    63  PHE63       0.0547
     90  CG        66.2160   20.5430    8.4030 C.ar   63  PHE63      -0.0202
     91  CD1       66.6070   21.6380    9.1690 C.ar   63  PHE63      -0.0042
     92  CD2       65.1010   19.8140    8.7990 C.ar   63  PHE63      -0.0042
     93  CE1       65.8930   22.0050   10.3180 C.ar   63  PHE63      -0.0003
     94  CE2       64.3790   20.1730    9.9500 C.ar   63  PHE63      -0.0003
     95  CZ        64.7770   21.2720   10.7070 C.ar   63  PHE63      -0.0000
     96  N         67.5350   17.2950    7.6460 N.am   64  PHE64      -0.1976
     97  CA        67.3500   16.0240    8.3310 C.3    64  PHE64       0.1639
     98  C         68.6400   15.2090    8.4280 C.2    64  PHE64       0.2290
     99  O         68.7530   14.2810    9.2360 O.2    64  PHE64      -0.2864
    100  CB        66.2310   15.2250    7.6620 C.3    64  PHE64       0.0560
    101  CG        64.8630   15.8320    7.8630 C.ar   64  PHE64      -0.0200
    102  CD1       64.3350   16.7270    6.9360 C.ar   64  PHE64      -0.0042
    103  CD2       64.1250   15.5500    9.0090 C.ar   64  PHE64      -0.0042
    104  CE1       63.0970   17.3330    7.1460 C.ar   64  PHE64      -0.0003
    105  CE2       62.8860   16.1520    9.2300 C.ar   64  PHE64      -0.0003
    106  CZ        62.3690   17.0470    8.2950 C.ar   64  PHE64      -0.0000
    107  N         66.1540    9.4250   16.5400 N.3    80  TYR80      -0.1241
    108  CA        65.6520   10.6790   16.0030 C.3    80  TYR80       0.1605
    109  C         65.8070   11.8560   16.9730 C.2    80  TYR80       0.2264
    110  O         66.3930   12.8800   16.6270 O.2    80  TYR80      -0.2867
    111  CB        64.1830   10.5230   15.6160 C.3    80  TYR80       0.0534
    112  CG        63.5910   11.7480   14.9620 C.ar   80  TYR80      -0.0201
    113  CD1       63.8780   12.0620   13.6350 C.ar   80  TYR80      -0.0009
    114  CD2       62.7650   12.6090   15.6800 C.ar   80  TYR80      -0.0009
    115  CE1       63.3560   13.2080   13.0400 C.ar   80  TYR80       0.0417
    116  CE2       62.2360   13.7570   15.0990 C.ar   80  TYR80       0.0417
    117  CZ        62.5340   14.0490   13.7810 C.ar   80  TYR80       0.1957
    118  OH        62.0070   15.1750   13.2050 O.3    80  TYR80      -0.2866
    119  N         68.3400   14.8740   17.0070 N.3    84  TRP84      -0.1241
    120  CA        67.8400   16.2420   16.9940 C.3    84  TRP84       0.1605
    121  C         68.5990   17.1550   17.9570 C.2    84  TRP84       0.2264
    122  O         68.7140   18.3590   17.7150 O.2    84  TRP84      -0.2867
    123  CB        66.3420   16.2880   17.3020 C.3    84  TRP84       0.0550
    124  CG        65.5290   16.7230   16.1110 C.ar   84  TRP84       0.0003
    125  CD1       64.9480   15.9190   15.1790 C.ar   84  TRP84       0.0946
    126  CD2       65.2840   18.0670   15.6890 C.ar   84  TRP84       0.0152
    127  NE1       64.3560   16.6750   14.1990 N.ar   84  TRP84      -0.2442
    128  CE2       64.5480   18.0000   14.4870 C.ar   84  TRP84       0.0810
    129  CE3       65.6190   19.3280   16.2070 C.ar   84  TRP84       0.0012
    130  CZ2       64.1390   19.1470   13.7910 C.ar   84  TRP84       0.0191
    131  CZ3       65.2120   20.4690   15.5160 C.ar   84  TRP84       0.0001
    132  CH2       64.4800   20.3690   14.3210 C.ar   84  TRP84       0.0015
    133  N         68.1450   25.6680    8.7940 N.3   103  ILE103     -0.1245
    134  CA        66.7460   26.0720    8.7260 C.3   103  ILE103      0.1561
    135  C         66.6100   27.3570    7.8970 C.2   103  ILE103      0.2260
    136  O         65.6130   27.5640    7.2040 O.2   103  ILE103     -0.2867
    137  CB        66.1450   26.2650   10.1550 C.3   103  ILE103      0.0252
    138  CG1       64.6540   26.5860   10.0600 C.3   103  ILE103      0.0019
    139  CG2       66.8620   27.3730   10.8870 C.3   103  ILE103      0.0019
    140  CD1       63.8550   25.5370    9.3270 C.3   103  ILE103      0.0001
    141  N         66.7910   26.4670    4.2400 N.3   106  TRP106     -0.1227
    142  CA        65.5250   25.8610    3.8440 C.3   106  TRP106      0.1737
    143  C         64.5120   26.9610    3.5470 C.2   106  TRP106      0.2596
    144  O         63.9150   26.9930    2.4690 O.2   106  TRP106     -0.2718
    145  CB        64.9960   24.9560    4.9670 C.3   106  TRP106      0.0564
    146  CG        63.7670   24.1470    4.6230 C.ar  106  TRP106      0.0003
    147  CD1       63.0510   24.1830    3.4610 C.ar  106  TRP106      0.0946
    148  CD2       63.1160   23.1760    5.4610 C.ar  106  TRP106      0.0152
    149  NE1       62.0020   23.3020    3.5210 N.ar  106  TRP106     -0.2442
    150  CE2       62.0170   22.6700    4.7370 C.ar  106  TRP106      0.0810
    151  CE3       63.3590   22.6870    6.7550 C.ar  106  TRP106      0.0012
    152  CZ2       61.1560   21.6950    5.2620 C.ar  106  TRP106      0.0191
    153  CZ3       62.5000   21.7150    7.2790 C.ar  106  TRP106      0.0001
    154  CH2       61.4120   21.2320    6.5290 C.ar  106  TRP106      0.0015
    155  N         64.3320   27.8630    4.5110 N.am  107  GLY107     -0.1957
    156  CA        63.3920   28.9610    4.3530 C.3   107  GLY107      0.1869
    157  C         63.5870   29.7120    3.0530 C.2   107  GLY107      0.2309
    158  O         62.6250   29.9320    2.3150 O.2   107  GLY107     -0.2863
    159  N         62.4140   27.5640    0.2010 N.3   110  LEU110     -0.1231
    160  CA        60.9630   27.4550    0.1880 C.3   110  LEU110      0.1693
    161  C         60.2310   28.7470   -0.1630 C.2   110  LEU110      0.2592
    162  O         59.2850   28.7220   -0.9540 O.2   110  LEU110     -0.2718
    163  CB        60.4610   26.9240    1.5380 C.3   110  LEU110      0.0284
    164  CG        58.9520   26.6780    1.6380 C.3   110  LEU110      0.0019
    165  CD1       58.5160   25.6720    0.5910 C.3   110  LEU110      0.0001
    166  CD2       58.6040   26.1800    3.0330 C.3   110  LEU110      0.0001
    167  N         60.6570   29.8710    0.4140 N.am  111  PHE111     -0.1976
    168  CA        60.0010   31.1550    0.1410 C.3   111  PHE111      0.1639
    169  C         60.1400   31.6050   -1.3140 C.2   111  PHE111      0.2290
    170  O         59.2870   32.3250   -1.8410 O.2   111  PHE111     -0.2864
    171  CB        60.5460   32.2510    1.0670 C.3   111  PHE111      0.0560
    172  CG        59.8800   32.3000    2.4200 C.ar  111  PHE111     -0.0200
    173  CD1       59.7960   31.1630    3.2160 C.ar  111  PHE111     -0.0042
    174  CD2       59.3740   33.4980    2.9160 C.ar  111  PHE111     -0.0042
    175  CE1       59.2220   31.2220    4.4850 C.ar  111  PHE111     -0.0003
    176  CE2       58.8000   33.5660    4.1830 C.ar  111  PHE111     -0.0003
    177  CZ        58.7260   32.4270    4.9690 C.ar  111  PHE111     -0.0000
    178  N         51.0090   31.2730    2.9420 N.3   127  TRP127     -0.1241
    179  CA        51.4270   30.5070    4.1190 C.3   127  TRP127      0.1605
    180  C         50.4680   29.3360    4.3030 C.2   127  TRP127      0.2264
    181  O         50.8920   28.2140    4.5900 O.2   127  TRP127     -0.2867
    182  CB        51.4120   31.4000    5.3600 C.3   127  TRP127      0.0550
    183  CG        51.7970   30.7160    6.6350 C.ar  127  TRP127      0.0003
    184  CD1       51.1220   30.7630    7.8230 C.ar  127  TRP127      0.0946
    185  CD2       52.9690   29.9240    6.8710 C.ar  127  TRP127      0.0152
    186  NE1       51.8010   30.0530    8.7850 N.ar  127  TRP127     -0.2442
    187  CE2       52.9390   29.5290    8.2300 C.ar  127  TRP127      0.0810
    188  CE3       54.0420   29.5120    6.0680 C.ar  127  TRP127      0.0012
    189  CZ2       53.9450   28.7380    8.8050 C.ar  127  TRP127      0.0191
    190  CZ3       55.0400   28.7290    6.6340 C.ar  127  TRP127      0.0001
    191  CH2       54.9850   28.3500    7.9930 C.ar  127  TRP127      0.0015
    192  N         51.0540   26.5990    1.6640 N.3   130  TYR130     -0.1241
    193  CA        52.1750   25.7320    1.9990 C.3   130  TYR130      0.1605
    194  C         51.8990   24.8260    3.1950 C.2   130  TYR130      0.2264
    195  O         52.0320   23.6030    3.0960 O.2   130  TYR130     -0.2867
    196  CB        53.4410   26.5410    2.2990 C.3   130  TYR130      0.0534
    197  CG        54.5010   25.6700    2.9080 C.ar  130  TYR130     -0.0201
    198  CD1       55.1100   24.6620    2.1610 C.ar  130  TYR130     -0.0009
    199  CD2       54.8040   25.7620    4.2600 C.ar  130  TYR130     -0.0009
    200  CE1       55.9810   23.7660    2.7460 C.ar  130  TYR130      0.0417
    201  CE2       55.6730   24.8620    4.8610 C.ar  130  TYR130      0.0417
    202  CZ        56.2510   23.8650    4.1000 C.ar  130  TYR130      0.1957
    203  OH        57.0550   22.9290    4.7110 O.3   130  TYR130     -0.2866
    204  N         51.6690   20.7120    3.0910 N.3   134  ALA134     -0.1245
    205  CA        52.5880   19.8700    3.8420 C.3   134  ALA134      0.1562
    206  C         51.8460   19.1160    4.9500 C.2   134  ALA134      0.2260
    207  O         52.2500   18.0230    5.3550 O.2   134  ALA134     -0.2867
    208  CB        53.7020   20.7240    4.4450 C.3   134  ALA134      0.0290
    209  N         51.4140   20.3400    8.0300 N.3   136  ILE136     -0.1245
    210  CA        51.8540   20.7850    9.3450 C.3   136  ILE136      0.1561
    211  C         50.7850   21.6150   10.0590 C.2   136  ILE136      0.2260
    212  O         50.7580   21.6880   11.2770 O.2   136  ILE136     -0.2867
    213  CB        53.1770   21.5580    9.2500 C.3   136  ILE136      0.0252
    214  CG1       53.7280   21.7950   10.6590 C.3   136  ILE136      0.0019
    215  CG2       52.9800   22.8520    8.4780 C.3   136  ILE136      0.0019
    216  CD1       55.1940   22.1190   10.6880 C.3   136  ILE136      0.0001
    217  N         61.1800   35.9730    5.5490 N.3   160  VAL160     -0.1245
    218  CA        62.0670   34.8530    5.9010 C.3   160  VAL160      0.1561
    219  C         62.9720   35.1430    7.1000 C.2   160  VAL160      0.2260
    220  O         63.2310   34.2670    7.9260 O.2   160  VAL160     -0.2867
    221  CB        63.0040   34.4850    4.7410 C.3   160  VAL160      0.0252
    222  CG1       63.4390   33.0470    4.8730 C.3   160  VAL160      0.0019
    223  CG2       62.3260   34.7320    3.4250 C.3   160  VAL160      0.0019
    224  N         60.7110   34.8750   10.1560 N.3   163  MET163     -0.1230
    225  CA        60.3180   33.5000   10.4110 C.3   163  MET163      0.1702
    226  C         61.5090   32.6870   10.9110 C.2   163  MET163      0.2593
    227  O         61.3620   31.8410   11.8010 O.2   163  MET163     -0.2718
    228  CB        59.7520   32.8540    9.1500 C.3   163  MET163      0.0401
    229  CG        59.1620   31.4860    9.4140 C.3   163  MET163      0.0596
    230  SD        57.7830   31.5790   10.6150 S.3   163  MET163     -0.1393
    231  CE        56.5740   30.5720    9.7590 C.3   163  MET163      0.0692
    232  N         62.6860   32.9420   10.3450 N.am  164  THR164     -0.1953
    233  CA        63.8850   32.2240   10.7650 C.3   164  THR164      0.1897
    234  C         64.0560   32.4390   12.2640 C.2   164  THR164      0.2313
    235  O         64.2030   31.4890   13.0360 O.2   164  THR164     -0.2863
    236  CB        65.1550   32.7420   10.0330 C.3   164  THR164      0.1794
    237  OG1       65.0350   32.5050    8.6240 O.3   164  THR164     -0.2208
    238  CG2       66.3980   32.0350   10.5600 C.3   164  THR164      0.0378
    239  N         61.7130   30.3490   14.1670 N.3   167  HIS167     -0.1241
    240  CA        62.0830   28.9350   14.1680 C.3   167  HIS167      0.1621
    241  C         63.2270   28.5950   15.1120 C.2   167  HIS167      0.2264
    242  O         63.2470   27.5170   15.7000 O.2   167  HIS167     -0.2867
    243  CB        62.4210   28.4730   12.7540 C.3   167  HIS167      0.0745
    244  CG        61.2150   28.1680   11.9250 C.ar  167  HIS167      0.0817
    245  ND1       61.2660   28.0280   10.5550 N.ar  167  HIS167     -0.2268
    246  CD2       59.9250   27.9690   12.2780 C.ar  167  HIS167      0.1154
    247  CE1       60.0550   27.7560   10.1020 C.ar  167  HIS167      0.1986
    248  NE2       59.2230   27.7150   11.1270 N.ar  167  HIS167     -0.2212
    249  N         61.7830   25.7360   17.3730 N.3   171  TRP171     -0.1241
    250  CA        62.3700   24.4080   17.2360 C.3   171  TRP171      0.1605
    251  C         63.6310   24.1100   18.0460 C.2   171  TRP171      0.2264
    252  O         63.8620   22.9590   18.4160 O.2   171  TRP171     -0.2867
    253  CB        62.6880   24.1210   15.7600 C.3   171  TRP171      0.0550
    254  CG        61.5090   24.1700   14.8400 C.ar  171  TRP171      0.0003
    255  CD1       61.3560   24.9750   13.7510 C.ar  171  TRP171      0.0946
    256  CD2       60.3190   23.3780   14.9260 C.ar  171  TRP171      0.0152
    257  NE1       60.1420   24.7360   13.1510 N.ar  171  TRP171     -0.2442
    258  CE2       59.4860   23.7590   13.8510 C.ar  171  TRP171      0.0810
    259  CE3       59.8750   22.3830   15.8060 C.ar  171  TRP171      0.0012
    260  CZ2       58.2360   23.1780   13.6320 C.ar  171  TRP171      0.0191
    261  CZ3       58.6270   21.8040   15.5840 C.ar  171  TRP171      0.0001
    262  CH2       57.8250   22.2070   14.5040 C.ar  171  TRP171      0.0015
    263  N         52.6660   27.9400   15.3430 N.3   182  TYR182     -0.1241
    264  CA        51.7950   27.1940   14.4380 C.3   182  TYR182      0.1605
    265  C         50.4340   26.9860   15.0880 C.2   182  TYR182      0.2264
    266  O         49.8270   25.9260   14.9390 O.2   182  TYR182     -0.2867
    267  CB        52.3780   25.8180   14.1020 C.3   182  TYR182      0.0534
    268  CG        53.6930   25.8590   13.3740 C.ar  182  TYR182     -0.0201
    269  CD1       54.8500   26.3020   14.0160 C.ar  182  TYR182     -0.0009
    270  CD2       53.7830   25.4680   12.0380 C.ar  182  TYR182     -0.0009
    271  CE1       56.0660   26.3560   13.3510 C.ar  182  TYR182      0.0417
    272  CE2       54.9980   25.5210   11.3590 C.ar  182  TYR182      0.0417
    273  CZ        56.1330   25.9650   12.0270 C.ar  182  TYR182      0.1957
    274  OH        57.3400   25.9940   11.3850 O.3   182  TYR182     -0.2866
@<TRIPOS>BOND
     1    63    62    2
     2    68    69    1
     3    62    61    1
     4    60    61    1
     5    72    69    1
     6    72    73    1
     7    61    64    1
     8    69    70    1
     9   170   169    2
    10    58    57    2
    11    70    71    2
    12   169   168    1
    13    57    56    1
    14    73    74   ar
    15    73    75   ar
    16   162   161    2
    17    74    76   ar
    18    64    66    1
    19    64    65    1
    20   161   160    1
    21   161   167   am
    22    75    77   ar
    23    49    48    2
    24   168   167    1
    25   168   171    1
    26   160   159    1
    27   160   163    1
    28    76    77   ar
    29    56    55    1
    30    56    59    1
    31    46    47    1
    32    65    67    1
    33    48    55   am
    34    48    47    1
    35   165   164    1
    36    47    50    1
    37   171   172    1
    38   163   164    1
    39   164   166    1
    40   192   193    1
    41   193   196    1
    42   193   194    1
    43   198   200   ar
    44   198   197   ar
    45    84    82    1
    46   196   197    1
    47   158   157    2
    48    50    51    1
    49    78    79    1
    50   172   174   ar
    51   172   173   ar
    52   144   143    2
    53    41    40    2
    54    82    79    1
    55    82    83    1
    56   200   202   ar
    57    40    39    1
    58   197   199   ar
    59   174   176   ar
    60   178   179    1
    61    51    52    1
    62   157   156    1
    63   204   205    1
    64   195   194    2
    65   173   175   ar
    66    79    80    1
    67   223   221    1
    68   147   149   ar
    69   147   146   ar
    70   149   150   ar
    71   143   142    1
    72   143   155   am
    73    80    81    2
    74    38    39    1
    75   205   208    1
    76   205   206    1
    77   142   141    1
    78   142   145    1
    79    39    42    1
    80   202   203    1
    81   202   201   ar
    82   179   180    1
    83   179   182    1
    84   176   177   ar
    85   199   201   ar
    86   180   181    2
    87   156   155    1
    88   175   177   ar
    89    52    53    1
    90   146   145    1
    91   146   148   ar
    92   150   152   ar
    93   150   148   ar
    94   221   222    1
    95   221   218    1
    96   206   207    2
    97    54    53    1
    98    42    43    1
    99   152   154   ar
   100   182   183    1
   101   148   151   ar
   102   217   218    1
   103   218   219    1
   104   188   190   ar
   105   188   185   ar
   106    85    86    1
   107    43    44    1
   108    45    44    1
   109   154   153   ar
   110   190   191   ar
   111   183   185   ar
   112   183   184   ar
   113   151   153   ar
   114   185   187   ar
   115   102   104   ar
   116   102   101   ar
   117   219   220    2
   118   104   106   ar
   119    89    86    1
   120    89    90    1
   121   136   135    2
   122    86    87    1
   123    96    87   am
   124    96    97    1
   125   100   101    1
   126   100    97    1
   127   184   186   ar
   128   101   103   ar
   129   135   134    1
   130   191   189   ar
   131   209   210    1
   132    29    27   ar
   133    29    28   ar
   134    33    32    2
   135    87    88    2
   136   187   186   ar
   137   187   189   ar
   138   106   105   ar
   139    97    98    1
   140    90    92   ar
   141    90    91   ar
   142    98    99    2
   143   215   213    1
   144    37    35    1
   145   237   236    1
   146   134   133    1
   147   134   137    1
   148    27    25   ar
   149    92    94   ar
   150    28    26   ar
   151   103   105   ar
   152   228   229    1
   153   228   225    1
   154    91    93   ar
   155   213   210    1
   156   213   214    1
   157   140   138    1
   158   210   211    1
   159    32    31    1
   160   229   230    1
   161    22    21    2
   162    31    34    1
   163    31    30    1
   164   231   230    1
   165    34    35    1
   166    35    36    1
   167    94    95   ar
   168    25    24   ar
   169   236   238    1
   170   236   233    1
   171   211   212    2
   172   138   137    1
   173    26    24   ar
   174   247   245   ar
   175   247   248   ar
   176   137   139    1
   177   224   225    1
   178    93    95   ar
   179   232   233    1
   180   232   226   am
   181   225   226    1
   182   245   244   ar
   183    21    30   am
   184    21    20    1
   185    24    23    1
   186   214   216    1
   187   233   234    1
   188   226   227    2
   189   248   246   ar
   190   272   273   ar
   191   272   270   ar
   192   274   273    1
   193    20    23    1
   194    20    19    1
   195    18    17    1
   196   244   246   ar
   197   244   243    1
   198   273   271   ar
   199   270   268   ar
   200   234   235    2
   201   243   240    1
   202    14    13    2
   203   115   113   ar
   204   115   117   ar
   205   257   255   ar
   206   257   258   ar
   207   118   117    1
   208   271   269   ar
   209   268   269   ar
   210   268   267    1
   211    17    16    1
   212   260   258   ar
   213   260   262   ar
   214   113   112   ar
   215   255   254   ar
   216   117   116   ar
   217   130   132   ar
   218   130   128   ar
   219   258   256   ar
   220    13    12    1
   221   267   264    1
   222   239   240    1
   223   240   241    1
   224   127   128   ar
   225   127   125   ar
   226   132   131   ar
   227    15    12    1
   228    15    16    1
   229   264   265    1
   230   264   263    1
   231    12    11    1
   232   128   126   ar
   233   262   261   ar
   234   254   256   ar
   235   254   253    1
   236   256   259   ar
   237   266   265    2
   238   112   111    1
   239   112   114   ar
   240   116   114   ar
   241   241   242    2
   242   125   124   ar
   243   131   129   ar
   244   261   259   ar
   245   111   108    1
   246   126   124   ar
   247   126   129   ar
   248   253   250    1
   249   108   107    1
   250   108   109    1
   251   124   123    1
   252   110   109    2
   253     7     9   ar
   254     7     6   ar
   255     9    10   ar
   256   120   119    1
   257   120   123    1
   258   120   121    1
   259     4     3    2
   260   250   249    1
   261   250   251    1
   262   122   121    2
   263   251   252    2
   264    10     8   ar
   265     6     5    1
   266     6     8   ar
   267     3     2    1
   268     2     5    1
   269     2     1    1
