@<TRIPOS>MOLECULE
tmp/1ejbA00.pdb
 134 133 0 0 0
SMALL
GASTEIGER

@<TRIPOS>ATOM
      1  N         75.9690   54.1200   76.2220 N.3    24  ALA24      -0.1245
      2  CA        77.2760   53.5670   75.9200 C.3    24  ALA24       0.1562
      3  C         78.3100   54.6130   76.3350 C.2    24  ALA24       0.2260
      4  O         77.9190   55.7280   76.6870 O.2    24  ALA24      -0.2867
      5  CB        77.4260   53.2350   74.4470 C.3    24  ALA24       0.0290
      6  N         81.4270   54.9800   74.5750 N.3    26  TRP26      -0.1227
      7  CA        82.2430   55.2760   73.3950 C.3    26  TRP26       0.1737
      8  C         81.8630   56.6720   72.9260 C.2    26  TRP26       0.2595
      9  O         80.6530   56.9490   72.9040 O.2    26  TRP26      -0.2718
     10  CB        81.8290   54.2170   72.3680 C.3    26  TRP26       0.0564
     11  CG        82.8190   53.1050   72.2170 C.ar   26  TRP26       0.0003
     12  CD1       82.9370   51.9360   72.9060 C.ar   26  TRP26       0.0946
     13  CD2       83.8560   53.1020   71.2230 C.ar   26  TRP26       0.0152
     14  NE1       83.9930   51.1960   72.4000 N.ar   26  TRP26      -0.2442
     15  CE2       84.5640   51.8980   71.3670 C.ar   26  TRP26       0.0810
     16  CE3       84.2350   54.0170   70.2240 C.ar   26  TRP26       0.0012
     17  CZ2       85.6530   51.5850   70.5510 C.ar   26  TRP26       0.0191
     18  CZ3       85.3180   53.7000   69.4280 C.ar   26  TRP26       0.0001
     19  CH2       86.0170   52.5010   69.6020 C.ar   26  TRP26       0.0015
     20  N         82.7960   57.5650   72.6100 N.am   27  ASN27      -0.1974
     21  CA        82.4690   58.9310   72.1770 C.3    27  ASN27       0.1688
     22  C         81.7440   59.6620   73.2890 C.2    27  ASN27       0.2292
     23  O         80.7130   60.3010   73.1020 O.2    27  ASN27      -0.2864
     24  CB        81.6080   58.8820   70.9000 C.3    27  ASN27       0.1181
     25  CG        82.3070   58.1910   69.7590 C.2    27  ASN27       0.2629
     26  OD1       83.4350   58.5120   69.3590 O.2    27  ASN27      -0.2716
     27  ND2       81.6700   57.1680   69.1960 N.am   27  ASN27      -0.0877
     28  N         79.5000   49.5080   77.9590 N.3    58  PRO58      -0.2102
     29  CA        80.7210   49.8810   77.2810 C.3    58  PRO58       0.1504
     30  C         80.4940   50.4620   75.8980 C.2    58  PRO58       0.2576
     31  O         80.8320   51.6210   75.6230 O.2    58  PRO58      -0.2718
     32  CB        81.5430   48.6020   77.2530 C.3    58  PRO58       0.0282
     33  CG        80.8320   47.5880   78.0700 C.3    58  PRO58       0.0208
     34  CD        79.4450   48.0820   78.3300 C.3    58  PRO58       0.0893
     35  N         79.8470   49.7040   75.0210 N.am   59  GLY59      -0.1943
     36  CA        79.6350   50.1380   73.6360 C.3    59  GLY59       0.2014
     37  C         78.1790   50.0000   73.2190 C.2    59  GLY59       0.2640
     38  O         77.3470   49.4070   73.9140 O.2    59  GLY59      -0.2714
     39  N         77.8490   50.5700   72.0390 N.am   60  SER60      -0.1935
     40  CA        76.4750   50.5320   71.5610 C.3    60  SER60       0.2055
     41  C         75.9650   49.1220   71.3580 C.2    60  SER60       0.2643
     42  O         74.7610   48.8930   71.5990 O.2    60  SER60      -0.2714
     43  CB        76.3050   51.2800   70.2180 C.3    60  SER60       0.2130
     44  OG        76.5440   52.6730   70.3840 O.3    60  SER60      -0.2179
     45  N         76.8160   48.1620   70.9920 N.am   61  TYR61      -0.1959
     46  CA        76.3320   46.7950   70.8310 C.3    61  TYR61       0.1771
     47  C         75.7570   46.2170   72.1240 C.2    61  TYR61       0.2619
     48  O         74.9050   45.3470   72.0740 O.2    61  TYR61      -0.2715
     49  CB        77.4820   45.8850   70.3750 C.3    61  TYR61       0.0574
     50  CG        77.0760   44.5250   69.8820 C.ar   61  TYR61      -0.0198
     51  CD1       76.9140   44.2820   68.5010 C.ar   61  TYR61      -0.0009
     52  CD2       76.8410   43.4720   70.7530 C.ar   61  TYR61      -0.0009
     53  CE1       76.5630   43.0230   68.0610 C.ar   61  TYR61       0.0417
     54  CE2       76.4760   42.2240   70.3250 C.ar   61  TYR61       0.0417
     55  CZ        76.3520   42.0000   68.9620 C.ar   61  TYR61       0.1957
     56  OH        76.0020   40.7660   68.5110 O.3    61  TYR61      -0.2866
     57  N         76.1950   46.6980   73.2870 N.am   62  GLU62      -0.1977
     58  CA        75.7000   46.1950   74.5690 C.3    62  GLU62       0.1602
     59  C         74.3960   46.8760   74.9750 C.2    62  GLU62       0.2287
     60  O         73.8250   46.4700   75.9920 O.2    62  GLU62      -0.2864
     61  CB        76.7150   46.4730   75.6910 C.3    62  GLU62       0.0415
     62  CG        77.9350   45.5820   75.6770 C.3    62  GLU62       0.1163
     63  CD        78.8580   45.7850   74.4930 C.2    62  GLU62       0.3649
     64  OE1       79.4380   46.8820   74.3520 O.co2  62  GLU62      -0.2457
     65  OE2       78.9990   44.8360   73.6890 O.co2  62  GLU62      -0.2457
     66  N         76.6540   56.3200   70.4110 N.3    89  VAL89      -0.1231
     67  CA        77.1660   57.1210   69.2960 C.3    89  VAL89       0.1692
     68  C         78.1280   56.2560   68.4930 C.2    89  VAL89       0.2592
     69  O         79.1690   55.8130   68.9840 O.2    89  VAL89      -0.2718
     70  CB        77.8720   58.3930   69.7660 C.3    89  VAL89       0.0266
     71  CG1       78.4820   59.1250   68.5560 C.3    89  VAL89       0.0020
     72  CG2       76.8780   59.3350   70.4420 C.3    89  VAL89       0.0020
     73  N         77.7680   55.9600   67.2560 N.am   90  LEU90      -0.1966
     74  CA        78.5400   55.1760   66.3320 C.3    90  LEU90       0.1728
     75  C         79.0190   56.0960   65.2110 C.2    90  LEU90       0.2616
     76  O         78.2410   56.8460   64.6440 O.2    90  LEU90      -0.2715
     77  CB        77.6880   54.0590   65.7300 C.3    90  LEU90       0.0311
     78  CG        77.3860   52.9540   66.7590 C.3    90  LEU90       0.0022
     79  CD1       76.0160   52.3600   66.4580 C.3    90  LEU90       0.0001
     80  CD2       78.4640   51.8810   66.6830 C.3    90  LEU90       0.0001
     81  N         80.3080   56.0220   64.9430 N.am   91  ILE91      -0.1977
     82  CA        80.9130   56.8800   63.9180 C.3    91  ILE91       0.1596
     83  C         81.7010   55.9840   62.9700 C.2    91  ILE91       0.2287
     84  O         82.5340   55.1800   63.4050 O.2    91  ILE91      -0.2864
     85  CB        81.8120   57.9550   64.5350 C.3    91  ILE91       0.0276
     86  CG1       80.9990   58.9200   65.4140 C.3    91  ILE91       0.0022
     87  CG2       82.4820   58.7780   63.4120 C.3    91  ILE91       0.0022
     88  CD1       81.8140   59.7360   66.3980 C.3    91  ILE91       0.0001
     89  N         84.1850   54.1580   60.6670 N.3    93  GLY93      -0.1210
     90  CA        85.6390   54.1030   60.6730 C.3    93  GLY93       0.1956
     91  C         86.0960   53.5620   59.3120 C.2    93  GLY93       0.2613
     92  O         85.4830   53.9020   58.2860 O.2    93  GLY93      -0.2717
     93  N         87.1320   52.7290   59.2750 N.am   94  SER94      -0.1938
     94  CA        87.5790   52.1900   57.9950 C.3    94  SER94       0.2055
     95  C         86.9670   50.8410   57.6370 C.2    94  SER94       0.2643
     96  O         87.0020   50.4790   56.4550 O.2    94  SER94      -0.2714
     97  CB        89.1080   52.0160   58.0060 C.3    94  SER94       0.2130
     98  OG        89.6610   53.2930   58.2610 O.3    94  SER94      -0.2179
     99  N         86.5090   50.0700   58.6260 N.am   95  THR95      -0.1950
    100  CA        85.9560   48.7470   58.3000 C.3    95  THR95       0.1897
    101  C         84.4350   48.8100   58.2170 C.2    95  THR95       0.2313
    102  O         83.7850   49.8590   58.2640 O.2    95  THR95      -0.2863
    103  CB        86.3480   47.6810   59.3380 C.3    95  THR95       0.1794
    104  OG1       85.6270   47.9330   60.5620 O.3    95  THR95      -0.2208
    105  CG2       87.8460   47.7220   59.6620 C.3    95  THR95       0.0378
    106  N         82.6550   47.5150   60.5740 N.3    97  HIS97      -0.1226
    107  CA        82.1550   47.3760   61.9420 C.3    97  HIS97       0.1752
    108  C         81.0050   48.3290   62.2090 C.2    97  HIS97       0.2596
    109  O         79.9940   47.9440   62.7960 O.2    97  HIS97      -0.2718
    110  CB        83.2970   47.6600   62.9210 C.3    97  HIS97       0.0759
    111  CG        83.4570   46.4860   63.8410 C.ar   97  HIS97       0.0818
    112  ND1       83.7210   46.6540   65.1720 N.ar   97  HIS97      -0.2268
    113  CD2       83.3800   45.1490   63.5860 C.ar   97  HIS97       0.1154
    114  CE1       83.8100   45.4620   65.7160 C.ar   97  HIS97       0.1986
    115  NE2       83.6230   44.5280   64.7880 N.ar   97  HIS97      -0.2212
    116  N         81.1640   49.5870   61.8010 N.am   98  PHE98      -0.1976
    117  CA        80.1070   50.5670   61.9970 C.3    98  PHE98       0.1639
    118  C         78.7790   50.0480   61.4860 C.2    98  PHE98       0.2290
    119  O         77.7730   50.1440   62.2210 O.2    98  PHE98      -0.2864
    120  CB        80.4510   51.8760   61.2980 C.3    98  PHE98       0.0560
    121  CG        79.3440   52.8660   61.1170 C.ar   98  PHE98      -0.0200
    122  CD1       78.9910   53.7450   62.1430 C.ar   98  PHE98      -0.0042
    123  CD2       78.6530   52.9420   59.9270 C.ar   98  PHE98      -0.0042
    124  CE1       77.9970   54.6830   61.9560 C.ar   98  PHE98      -0.0003
    125  CE2       77.6610   53.8660   59.7290 C.ar   98  PHE98      -0.0003
    126  CZ        77.3230   54.7340   60.7540 C.ar   98  PHE98      -0.0000
    127  N         77.4590   46.7630   63.5030 N.3   101  ILE101     -0.1245
    128  CA        76.9660   47.1110   64.8440 C.3   101  ILE101      0.1561
    129  C         75.7060   47.9590   64.7200 C.2   101  ILE101      0.2260
    130  O         74.7240   47.7320   65.4340 O.2   101  ILE101     -0.2867
    131  CB        78.0230   47.8860   65.6490 C.3   101  ILE101      0.0252
    132  CG1       79.2510   46.9770   65.8610 C.3   101  ILE101      0.0019
    133  CG2       77.4540   48.3380   67.0020 C.3   101  ILE101      0.0019
    134  CD1       80.4640   47.7280   66.3970 C.3   101  ILE101      0.0001
@<TRIPOS>BOND
     1    96    95    2
     2    95    94    1
     3    95    99   am
     4    94    97    1
     5    94    93    1
     6    97    98    1
     7   101   102    2
     8   101   100    1
     9    92    91    2
    10   100    99    1
    11   100   103    1
    12    93    91   am
    13    91    90    1
    14   103   105    1
    15   103   104    1
    16   125   123   ar
    17   125   126   ar
    18   123   121   ar
    19   106   107    1
    20    89    90    1
    21   126   124   ar
    22   121   120    1
    23   121   122   ar
    24   120   117    1
    25   118   117    1
    26   118   119    2
    27   116   117    1
    28   116   108   am
    29   107   108    1
    30   107   110    1
    31   124   122   ar
    32   108   109    2
    33   110   111    1
    34    83    84    2
    35    83    82    1
    36    87    85    1
    37   127   128    1
    38   113   111   ar
    39   113   115   ar
    40   111   112   ar
    41    82    85    1
    42    82    81    1
    43    85    86    1
    44    76    75    2
    45   129   128    1
    46   129   130    2
    47   115   114   ar
    48   128   131    1
    49    81    75   am
    50   112   114   ar
    51    75    74    1
    52    86    88    1
    53   131   132    1
    54   131   133    1
    55    77    74    1
    56    77    78    1
    57   132   134    1
    58    74    73    1
    59    79    78    1
    60    80    78    1
    61    73    68   am
    62    53    51   ar
    63    53    55   ar
    64    68    69    2
    65    68    67    1
    66    51    50   ar
    67    56    55    1
    68    71    70    1
    69    55    54   ar
    70    27    25   am
    71    67    70    1
    72    67    66    1
    73    26    25    2
    74    18    19   ar
    75    18    16   ar
    76    19    17   ar
    77    25    24    1
    78    70    72    1
    79    50    49    1
    80    50    52   ar
    81    43    44    1
    82    43    40    1
    83    16    13   ar
    84    54    52   ar
    85    49    46    1
    86    17    15   ar
    87    46    45    1
    88    46    47    1
    89    24    21    1
    90    45    41   am
    91    13    15   ar
    92    13    11   ar
    93    41    40    1
    94    41    42    2
    95    15    14   ar
    96    40    39    1
    97    39    37   am
    98    48    47    2
    99    47    57   am
   100    21    20    1
   101    21    22    1
   102    11    10    1
   103    11    12   ar
   104    10     7    1
   105    14    12   ar
   106    20     8   am
   107     9     8    2
   108     8     7    1
   109    23    22    2
   110    37    36    1
   111    37    38    2
   112    57    58    1
   113     7     6    1
   114    36    35    1
   115    65    63   ar
   116    64    63   ar
   117     5     2    1
   118    63    62    1
   119    58    59    1
   120    58    61    1
   121    59    60    2
   122    35    30   am
   123    31    30    2
   124    62    61    1
   125    30    29    1
   126     2     1    1
   127     2     3    1
   128     3     4    2
   129    32    29    1
   130    32    33    1
   131    29    28    1
   132    28    34    1
   133    33    34    1
