@<TRIPOS>MOLECULE
tmp/1ejeA00.pdb
 191 190 0 0 0
SMALL
GASTEIGER

@<TRIPOS>ATOM
      1  N         34.6670   39.1530   28.3030 N.3    29  THR29      -0.1218
      2  CA        34.2300   38.9550   29.6700 C.3    29  THR29       0.1862
      3  C         32.9860   39.7930   29.8830 C.2    29  THR29       0.2287
      4  O         33.0230   41.0140   29.7350 O.2    29  THR29      -0.2866
      5  CB        35.3040   39.3980   30.6740 C.3    29  THR29       0.1770
      6  OG1       36.4400   38.5310   30.5700 O.3    29  THR29      -0.2211
      7  CG2       34.7600   39.3470   32.0900 C.3    29  THR29       0.0375
      8  N         21.1670   39.4490   40.9210 N.3    42  ASN42      -0.1240
      9  CA        22.4320   38.7380   41.0360 C.3    42  ASN42       0.1653
     10  C         23.2630   39.1420   39.8240 C.2    42  ASN42       0.2266
     11  O         22.7220   39.3690   38.7420 O.2    42  ASN42      -0.2867
     12  CB        22.1940   37.2270   41.0240 C.3    42  ASN42       0.1155
     13  CG        23.4300   36.4410   41.4120 C.2    42  ASN42       0.2627
     14  OD1       23.6510   36.1540   42.5900 O.2    42  ASN42      -0.2716
     15  ND2       24.2500   36.0930   40.4220 N.am   42  ASN42      -0.0877
     16  N         27.2320   38.3510   37.8740 N.3    44  ALA44      -0.1231
     17  CA        28.4770   37.5970   37.8780 C.3    44  ALA44       0.1679
     18  C         29.1100   37.6630   36.5050 C.2    44  ALA44       0.2434
     19  O         28.4160   37.7730   35.4990 O.2    44  ALA44      -0.2733
     20  CB        28.2120   36.1480   38.2780 C.3    44  ALA44       0.0304
     21  N         30.4450   37.6080   36.4480 N.am   45  PRO45      -0.2718
     22  CA        31.1860   37.6670   35.1870 C.3    45  PRO45       0.1535
     23  C         31.3550   36.3010   34.5290 C.2    45  PRO45       0.2599
     24  O         31.5390   35.2870   35.2060 O.2    45  PRO45      -0.2715
     25  CB        32.5190   38.2540   35.6180 C.3    45  PRO45       0.0310
     26  CG        32.7320   37.5650   36.9400 C.3    45  PRO45       0.0237
     27  CD        31.3680   37.6250   37.6010 C.3    45  PRO45       0.0939
     28  N         31.2890   36.2800   33.2050 N.am   46  PHE46      -0.1960
     29  CA        31.4600   35.0440   32.4570 C.3    46  PHE46       0.1771
     30  C         32.3060   35.3270   31.2310 C.2    46  PHE46       0.2620
     31  O         32.1330   36.3620   30.5800 O.2    46  PHE46      -0.2715
     32  CB        30.1020   34.4690   32.0250 C.3    46  PHE46       0.0574
     33  CG        29.2440   34.0090   33.1690 C.ar   46  PHE46      -0.0200
     34  CD1       28.4490   34.9030   33.8630 C.ar   46  PHE46      -0.0042
     35  CD2       29.2710   32.6880   33.5810 C.ar   46  PHE46      -0.0042
     36  CE1       27.6940   34.4850   34.9560 C.ar   46  PHE46      -0.0003
     37  CE2       28.5220   32.2600   34.6720 C.ar   46  PHE46      -0.0003
     38  CZ        27.7310   33.1660   35.3600 C.ar   46  PHE46      -0.0000
     39  N         33.2340   34.4230   30.9290 N.am   47  SER47      -0.1936
     40  CA        34.0900   34.5870   29.7610 C.3    47  SER47       0.2055
     41  C         33.8330   33.4820   28.7380 C.2    47  SER47       0.2643
     42  O         34.3410   33.5360   27.6180 O.2    47  SER47      -0.2714
     43  CB        35.5730   34.6390   30.1630 C.3    47  SER47       0.2130
     44  OG        35.9530   33.5210   30.9400 O.3    47  SER47      -0.2179
     45  N         33.0630   32.2710   29.0920 N.am   48  PHE48      -0.1973
     46  CA        32.5790   31.3230   28.0980 C.3    48  PHE48       0.1639
     47  C         31.2710   31.8030   27.4890 C.2    48  PHE48       0.2290
     48  O         30.2480   31.6570   28.1410 O.2    48  PHE48      -0.2864
     49  CB        32.3970   29.9400   28.7220 C.3    48  PHE48       0.0560
     50  CG        33.6780   29.3150   29.1810 C.ar   48  PHE48      -0.0200
     51  CD1       33.6800   28.0570   29.7590 C.ar   48  PHE48      -0.0042
     52  CD2       34.8770   29.9870   29.0340 C.ar   48  PHE48      -0.0042
     53  CE1       34.8610   27.4780   30.1840 C.ar   48  PHE48      -0.0003
     54  CE2       36.0620   29.4150   29.4570 C.ar   48  PHE48      -0.0003
     55  CZ        36.0540   28.1580   30.0320 C.ar   48  PHE48      -0.0000
     56  N         28.2970   29.7770   28.9980 N.3    62  ALA62      -0.1231
     57  CA        28.3390   28.5810   29.8270 C.3    62  ALA62       0.1694
     58  C         28.5690   28.9220   31.2950 C.2    62  ALA62       0.2593
     59  O         29.4470   29.7120   31.6390 O.2    62  ALA62      -0.2718
     60  CB        29.4250   27.6370   29.3260 C.3    62  ALA62       0.0304
     61  N         27.7750   28.3010   32.1540 N.am   63  SER63      -0.1938
     62  CA        27.8610   28.5290   33.5840 C.3    63  SER63       0.2055
     63  C         27.8540   27.2300   34.3800 C.2    63  SER63       0.2639
     64  O         27.2670   26.2350   33.9550 O.2    63  SER63      -0.2714
     65  CB        26.6780   29.3780   34.0370 C.3    63  SER63       0.2130
     66  OG        26.5970   29.3870   35.4460 O.3    63  SER63      -0.2179
     67  N         28.5940   27.2580   35.5000 N.am   64  ALA64      -0.2030
     68  CA        28.4580   26.1030   36.3720 C.3    64  ALA64       0.1283
     69  C         27.0110   25.9020   36.8020 C.3    64  ALA64       0.2036
     70  O         26.3810   26.9760   36.9990 O.3    64  ALA64      -0.2185
     71  CB        29.3580   26.2470   37.5880 C.3    64  ALA64       0.0262
     72  N         25.8790   27.8240   40.1010 N.3    67  HIS67      -0.1226
     73  CA        25.9050   29.2790   40.2450 C.3    67  HIS67       0.1752
     74  C         24.5080   29.8560   40.4380 C.2    67  HIS67       0.2596
     75  O         23.5080   29.2550   40.0330 O.2    67  HIS67      -0.2718
     76  CB        26.5510   29.9330   39.0120 C.3    67  HIS67       0.0759
     77  CG        28.0420   29.7930   38.9640 C.ar   67  HIS67       0.0818
     78  ND1       28.7840   30.0870   37.8390 N.ar   67  HIS67      -0.2268
     79  CD2       28.9320   29.4090   39.9110 C.ar   67  HIS67       0.1154
     80  CE1       30.0650   29.8900   38.0960 C.ar   67  HIS67       0.1986
     81  NE2       30.1820   29.4790   39.3460 N.ar   67  HIS67      -0.2212
     82  N         24.4470   31.0200   41.0740 N.am   68  HIS68      -0.1961
     83  CA        23.1860   31.7030   41.2990 C.3    68  HIS68       0.1787
     84  C         22.6490   32.0610   39.9310 C.2    68  HIS68       0.2620
     85  O         21.4400   32.0620   39.7060 O.2    68  HIS68      -0.2715
     86  CB        23.3980   32.9950   42.0890 C.3    68  HIS68       0.0785
     87  CG        23.8410   32.7800   43.5010 C.ar   68  HIS68       0.0821
     88  ND1       24.5760   33.7150   44.1980 N.ar   68  HIS68      -0.2267
     89  CD2       23.6490   31.7430   44.3480 C.ar   68  HIS68       0.1154
     90  CE1       24.8220   33.2610   45.4130 C.ar   68  HIS68       0.1986
     91  NE2       24.2710   32.0660   45.5290 N.ar   68  HIS68      -0.2212
     92  N         23.5620   32.3790   39.0200 N.am   69  THR69      -0.1951
     93  CA        23.1690   32.7580   37.6690 C.3    69  THR69       0.1897
     94  C         22.4600   31.6070   36.9780 C.2    69  THR69       0.2313
     95  O         21.4290   31.8000   36.3450 O.2    69  THR69      -0.2863
     96  CB        24.3860   33.1950   36.8260 C.3    69  THR69       0.1794
     97  OG1       25.0130   34.3140   37.4540 O.3    69  THR69      -0.2208
     98  CG2       23.9530   33.6090   35.4230 C.3    69  THR69       0.0378
     99  N         34.1390   44.6400   38.0780 N.3    92  MET92      -0.1230
    100  CA        33.4730   43.4420   37.5840 C.3    92  MET92       0.1702
    101  C         34.1290   42.2570   38.2730 C.2    92  MET92       0.2592
    102  O         33.4680   41.2750   38.6090 O.2    92  MET92      -0.2718
    103  CB        33.5890   43.3200   36.0550 C.3    92  MET92       0.0401
    104  CG        34.9030   42.7810   35.5290 C.3    92  MET92       0.0596
    105  SD        35.0630   40.9830   35.5930 S.3    92  MET92      -0.1393
    106  CE        36.7050   40.8570   35.0440 C.3    92  MET92       0.0692
    107  N         35.4330   42.3680   38.5030 N.am   93  TRP93      -0.1976
    108  CA        36.1700   41.3020   39.1610 C.3    93  TRP93       0.1640
    109  C         35.5830   41.0100   40.5350 C.2    93  TRP93       0.2290
    110  O         35.5190   39.8560   40.9530 O.2    93  TRP93      -0.2864
    111  CB        37.6440   41.6840   39.2930 C.3    93  TRP93       0.0576
    112  CG        38.4660   40.6890   40.0660 C.ar   93  TRP93       0.0006
    113  CD1       38.7580   40.7240   41.4000 C.ar   93  TRP93       0.0946
    114  CD2       39.1160   39.5230   39.5430 C.ar   93  TRP93       0.0152
    115  NE1       39.5550   39.6570   41.7380 N.ar   93  TRP93      -0.2442
    116  CE2       39.7900   38.9020   40.6190 C.ar   93  TRP93       0.0810
    117  CE3       39.1930   38.9420   38.2710 C.ar   93  TRP93       0.0012
    118  CZ2       40.5360   37.7250   40.4620 C.ar   93  TRP93       0.0191
    119  CZ3       39.9340   37.7690   38.1130 C.ar   93  TRP93       0.0001
    120  CH2       40.5950   37.1750   39.2050 C.ar   93  TRP93       0.0015
    121  N         32.4990   41.3180   41.4220 N.3    95  THR95      -0.1203
    122  CA        31.2260   40.6270   41.2810 C.3    95  THR95       0.1994
    123  C         31.4280   39.1170   41.2000 C.2    95  THR95       0.2618
    124  O         30.4560   38.3580   41.1590 O.2    95  THR95      -0.2717
    125  CB        30.4510   41.0900   40.0230 C.3    95  THR95       0.1784
    126  OG1       31.0980   40.5940   38.8450 O.3    95  THR95      -0.2211
    127  CG2       30.3980   42.6080   39.9640 C.3    95  THR95       0.0376
    128  N         32.6820   38.6730   41.1880 N.am   96  ALA96      -0.1965
    129  CA        32.9470   37.2400   41.1110 C.3    96  ALA96       0.1728
    130  C         33.0820   36.6340   42.4920 C.2    96  ALA96       0.2616
    131  O         33.0720   35.4130   42.6330 O.2    96  ALA96      -0.2715
    132  CB        34.2070   36.9600   40.2990 C.3    96  ALA96       0.0334
    133  N         33.2150   37.4790   43.5110 N.am   97  ARG97      -0.1963
    134  CA        33.3400   36.9770   44.8700 C.3    97  ARG97       0.1729
    135  C         32.1070   36.1470   45.1910 C.2    97  ARG97       0.2616
    136  O         31.0500   36.3180   44.5740 O.2    97  ARG97      -0.2715
    137  CB        33.4870   38.1300   45.8660 C.3    97  ARG97       0.0348
    138  CG        34.7640   38.9250   45.6540 C.3    97  ARG97       0.0492
    139  CD        35.1090   39.8320   46.8250 C.3    97  ARG97       0.2205
    140  NE        34.0030   40.7050   47.2040 N.pl3  97  ARG97      -0.0865
    141  CZ        34.1550   41.8990   47.7700 C.cat  97  ARG97       0.5346
    142  NH1       35.3700   42.3690   48.0190 N.pl3  97  ARG97       0.1354
    143  NH2       33.0900   42.6210   48.0970 N.pl3  97  ARG97       0.1354
    144  N         32.2410   35.2400   46.1490 N.am   98  ASP98      -0.1971
    145  CA        31.1340   34.3760   46.5080 C.3    98  ASP98       0.1709
    146  C         30.1500   35.0270   47.4710 C.2    98  ASP98       0.2293
    147  O         30.0550   34.6480   48.6400 O.2    98  ASP98      -0.2864
    148  CB        31.6650   33.0680   47.0920 C.3    98  ASP98       0.1436
    149  CG        30.6110   31.9910   47.1280 C.2    98  ASP98       0.3671
    150  OD1       29.8250   31.9040   46.1590 O.co2  98  ASP98      -0.2456
    151  OD2       30.5710   31.2270   48.1100 O.co2  98  ASP98      -0.2456
    152  N         25.5760   41.5690   44.1220 N.3   105  GLU105     -0.1245
    153  CA        27.0130   41.8370   44.0820 C.3   105  GLU105      0.1567
    154  C         27.3480   43.1500   43.3800 C.2   105  GLU105      0.2260
    155  O         28.4630   43.6540   43.4910 O.2   105  GLU105     -0.2867
    156  CB        27.7620   40.6730   43.4230 C.3   105  GLU105      0.0388
    157  CG        27.0270   40.0390   42.2780 C.3   105  GLU105      0.1160
    158  CD        26.1920   38.8380   42.6960 C.2   105  GLU105      0.3649
    159  OE1       26.7850   37.7930   43.0310 O.co2 105  GLU105     -0.2457
    160  OE2       24.9460   38.9380   42.6880 O.co2 105  GLU105     -0.2457
    161  N         29.5470   22.1840   32.9360 N.3   144  HIS144     -0.1241
    162  CA        28.8750   23.4610   32.7110 C.3   144  HIS144      0.1621
    163  C         27.5090   23.2470   32.0780 C.2   144  HIS144      0.2264
    164  O         27.1970   22.1550   31.6140 O.2   144  HIS144     -0.2867
    165  CB        29.6810   24.3670   31.7750 C.3   144  HIS144      0.0745
    166  CG        30.7670   25.1410   32.4530 C.ar  144  HIS144      0.0817
    167  ND1       31.9170   24.5530   32.9300 N.ar  144  HIS144     -0.2268
    168  CD2       30.8810   26.4640   32.7230 C.ar  144  HIS144      0.1154
    169  CE1       32.6930   25.4780   33.4650 C.ar  144  HIS144      0.1986
    170  NE2       32.0880   26.6470   33.3530 N.ar  144  HIS144     -0.2212
    171  N         39.1190   38.0050   28.7940 N.3   176  HIS176     -0.1241
    172  CA        39.7400   37.1260   29.7730 C.3   176  HIS176      0.1621
    173  C         40.7360   36.1900   29.1100 C.2   176  HIS176      0.2264
    174  O         40.4400   35.5850   28.0800 O.2   176  HIS176     -0.2867
    175  CB        38.6700   36.2950   30.4860 C.3   176  HIS176      0.0745
    176  CG        39.1370   35.6870   31.7720 C.ar  176  HIS176      0.0817
    177  ND1       38.4220   34.7180   32.4420 N.ar  176  HIS176     -0.2268
    178  CD2       40.2370   35.9280   32.5240 C.ar  176  HIS176      0.1154
    179  CE1       39.0620   34.3880   33.5500 C.ar  176  HIS176      0.1986
    180  NE2       40.1660   35.1090   33.6240 N.ar  176  HIS176     -0.2212
    181  N         44.0430   39.5780   31.9270 N.3   182  PHE182     -0.1241
    182  CA        43.0900   40.0230   30.9270 C.3   182  PHE182      0.1605
    183  C         43.7690   40.7490   29.7920 C.2   182  PHE182      0.2264
    184  O         44.9680   41.0250   29.8290 O.2   182  PHE182     -0.2867
    185  CB        42.0420   40.9510   31.5470 C.3   182  PHE182      0.0534
    186  CG        41.2450   40.3140   32.6510 C.ar  182  PHE182     -0.0203
    187  CD1       41.7660   40.2130   33.9360 C.ar  182  PHE182     -0.0042
    188  CD2       39.9830   39.7920   32.3990 C.ar  182  PHE182     -0.0042
    189  CE1       41.0440   39.6030   34.9510 C.ar  182  PHE182     -0.0003
    190  CE2       39.2570   39.1810   33.4070 C.ar  182  PHE182     -0.0003
    191  CZ        39.7860   39.0860   34.6850 C.ar  182  PHE182     -0.0000
@<TRIPOS>BOND
     1    47    46    1
     2    47    48    2
     3    42    41    2
     4   174   173    2
     5    46    49    1
     6    46    45    1
     7     1     2    1
     8    49    50    1
     9    41    45   am
    10    41    40    1
    11   171   172    1
    12    56    57    1
    13    52    50   ar
    14    52    54   ar
    15   173   172    1
    16    50    51   ar
    17    60    57    1
    18    54    55   ar
    19     2     3    1
    20     2     5    1
    21     4     3    2
    22    51    53   ar
    23    40    43    1
    24    40    39    1
    25   172   175    1
    26   183   184    2
    27   183   182    1
    28    57    58    1
    29    55    53   ar
    30    43    44    1
    31   175   176    1
    32     6     5    1
    33    31    30    2
    34     5     7    1
    35   182   185    1
    36   182   181    1
    37    39    30   am
    38    30    29    1
    39    58    59    2
    40    58    61   am
    41   185   186    1
    42   164   163    2
    43   176   177   ar
    44   176   178   ar
    45   165   166    1
    46   165   162    1
    47    32    29    1
    48    32    33    1
    49   163   162    1
    50    61    62    1
    51   188   186   ar
    52   188   190   ar
    53   177   179   ar
    54   166   168   ar
    55   166   167   ar
    56    29    28    1
    57   178   180   ar
    58   186   187   ar
    59   162   161    1
    60   168   170   ar
    61   167   169   ar
    62    33    35   ar
    63    33    34   ar
    64    28    23   am
    65   170   169   ar
    66   190   191   ar
    67   179   180   ar
    68    35    37   ar
    69    62    65    1
    70    62    63    1
    71    34    36   ar
    72   187   189   ar
    73    64    63    2
    74    65    66    1
    75    63    67   am
    76    23    22    1
    77    23    24    2
    78    37    38   ar
    79   191   189   ar
    80    36    38   ar
    81   106   105    1
    82    22    25    1
    83    22    21    1
    84    98    96    1
    85    19    18    2
    86    67    68    1
    87   104   105    1
    88   104   103    1
    89    25    26    1
    90   103   100    1
    91    95    94    2
    92    68    69    1
    93    68    71    1
    94    21    18   am
    95    21    27    1
    96    18    17    1
    97    69    70    1
    98    96    97    1
    99    96    93    1
   100    26    27    1
   101    94    93    1
   102   100    99    1
   103   100   101    1
   104    93    92    1
   105    78    80   ar
   106    78    77   ar
   107    16    17    1
   108    17    20    1
   109    80    81   ar
   110   119   117   ar
   111   119   120   ar
   112   117   114   ar
   113   101   107   am
   114   101   102    2
   115   107   108    1
   116    11    10    2
   117   126   125    1
   118    77    76    1
   119    77    79   ar
   120    76    73    1
   121    92    84   am
   122   108   111    1
   123   108   109    1
   124   120   118   ar
   125   111   112    1
   126    81    79   ar
   127   114   112   ar
   128   114   116   ar
   129    85    84    2
   130    10     9    1
   131    84    83    1
   132   127   125    1
   133   125   122    1
   134    75    74    2
   135   112   113   ar
   136    72    73    1
   137    73    74    1
   138   132   129    1
   139    15    13   am
   140    74    82   am
   141   118   116   ar
   142   109   110    2
   143   116   115   ar
   144     8     9    1
   145    12     9    1
   146    12    13    1
   147    82    83    1
   148   129   128    1
   149   129   130    1
   150   124   123    2
   151   128   123   am
   152   123   122    1
   153   122   121    1
   154    83    86    1
   155   113   115   ar
   156    13    14    2
   157    86    87    1
   158   157   158    1
   159   157   156    1
   160   130   131    2
   161   130   133   am
   162   160   158   ar
   163   158   159   ar
   164   154   155    2
   165   154   153    1
   166   156   153    1
   167    87    88   ar
   168    87    89   ar
   169   133   134    1
   170   153   152    1
   171    88    90   ar
   172    89    91   ar
   173   136   135    2
   174   134   135    1
   175   134   137    1
   176   135   144   am
   177    90    91   ar
   178   138   137    1
   179   138   139    1
   180   144   145    1
   181   150   149   ar
   182   145   148    1
   183   145   146    1
   184   139   140    1
   185   148   149    1
   186   149   151   ar
   187   140   141    2
   188   146   147    2
   189   141   142    1
   190   141   143    1
