@<TRIPOS>MOLECULE
tmp/1ejhB00.pdb
 142 138 0 0 0
SMALL
GASTEIGER

@<TRIPOS>ATOM
      1  N         -9.5900   33.8960   10.0600 N.3    17  PHE17      -0.1241
      2  CA        -8.9470   35.1950   10.1010 C.3    17  PHE17       0.1605
      3  C         -9.6960   36.0690    9.0940 C.2    17  PHE17       0.2264
      4  O         -9.7390   35.7470    7.9080 O.2    17  PHE17      -0.2867
      5  CB        -7.4730   35.0750    9.6990 C.3    17  PHE17       0.0534
      6  CG        -6.7150   36.3710    9.7810 C.ar   17  PHE17      -0.0203
      7  CD1       -6.2050   36.8190   10.9970 C.ar   17  PHE17      -0.0042
      8  CD2       -6.5320   37.1600    8.6470 C.ar   17  PHE17      -0.0042
      9  CE1       -5.5250   38.0330   11.0870 C.ar   17  PHE17      -0.0003
     10  CE2       -5.8530   38.3790    8.7260 C.ar   17  PHE17      -0.0003
     11  CZ        -5.3490   38.8150    9.9500 C.ar   17  PHE17      -0.0000
     12  N         -3.6460   42.1930   14.1220 N.3    25  TRP25      -0.1227
     13  CA        -3.6550   40.8630   13.5260 C.3    25  TRP25       0.1737
     14  C         -4.3870   39.8550   14.3980 C.2    25  TRP25       0.2595
     15  O         -5.1420   39.0020   13.9280 O.2    25  TRP25      -0.2718
     16  CB        -2.2270   40.3500   13.3320 C.3    25  TRP25       0.0564
     17  CG        -2.2220   39.0050   12.6820 C.ar   25  TRP25       0.0003
     18  CD1       -2.2990   38.7520   11.3340 C.ar   25  TRP25       0.0946
     19  CD2       -2.2920   37.7370   13.3230 C.ar   25  TRP25       0.0152
     20  NE1       -2.4270   37.4170   11.1110 N.ar   25  TRP25      -0.2442
     21  CE2       -2.4220   36.7540   12.3080 C.ar   25  TRP25       0.0810
     22  CE3       -2.2780   37.3230   14.6620 C.ar   25  TRP25       0.0012
     23  CZ2       -2.5230   35.3860   12.5920 C.ar   25  TRP25       0.0191
     24  CZ3       -2.3760   35.9660   14.9430 C.ar   25  TRP25       0.0001
     25  CH2       -2.4970   35.0110   13.9180 C.ar   25  TRP25       0.0015
     26  N         -4.1260   39.9520   15.6890 N.am   26  GLN26      -0.1979
     27  CA        -4.6990   39.0470   16.6520 C.3    26  GLN26       0.1601
     28  C         -6.1920   39.2720   16.8580 C.2    26  GLN26       0.2287
     29  O         -6.9340   38.3370   17.1640 O.2    26  GLN26      -0.2864
     30  CB        -3.8690   39.2040   17.9200 C.3    26  GLN26       0.0394
     31  CG        -4.3970   38.6930   19.2160 C.3    26  GLN26       0.0908
     32  CD        -3.2360   38.4430   20.1680 C.2    26  GLN26       0.2608
     33  OE1       -2.2360   39.1830   20.1610 O.2    26  GLN26      -0.2717
     34  NE2       -3.3510   37.3920   20.9760 N.am   26  GLN26      -0.0878
     35  N         -7.7010   33.4850    6.4880 N.3    59  ASP59      -0.1239
     36  CA        -7.1470   32.1590    6.7590 C.3    59  ASP59       0.1674
     37  C         -8.1140   31.2990    7.5740 C.2    59  ASP59       0.2266
     38  O         -9.1110   31.7640    8.1150 O.2    59  ASP59      -0.2867
     39  CB        -5.8740   32.1750    7.6220 C.3    59  ASP59       0.1410
     40  CG        -4.9240   33.2920    7.3010 C.2    59  ASP59       0.3668
     41  OD1       -4.5780   33.4960    6.1150 O.co2  59  ASP59      -0.2456
     42  OD2       -4.5020   33.9440    8.2750 O.co2  59  ASP59      -0.2456
     43  N         -1.2540   31.4100   16.8730 N.3    70  MET70      -0.1230
     44  CA        -0.3280   32.5380   16.7650 C.3    70  MET70       0.1702
     45  C          1.0340   32.2440   17.3910 C.2    70  MET70       0.2592
     46  O          1.1450   31.4280   18.3120 O.2    70  MET70      -0.2718
     47  CB        -0.9400   33.7670   17.4320 C.3    70  MET70       0.0401
     48  CG        -1.1820   33.5750   18.9300 C.3    70  MET70       0.0596
     49  SD        -2.1870   34.8590   19.7160 S.3    70  MET70      -0.1393
     50  CE        -1.9230   34.4310   21.4580 C.3    70  MET70       0.0692
     51  N          2.0640   32.9260   16.8950 N.am   71  TRP71      -0.1962
     52  CA         3.4200   32.7400   17.3960 C.3    71  TRP71       0.1771
     53  C          3.5360   32.9090   18.9100 C.2    71  TRP71       0.2619
     54  O          4.3020   32.1930   19.5620 O.2    71  TRP71      -0.2715
     55  CB         4.3800   33.7460   16.7550 C.3    71  TRP71       0.0590
     56  CG         4.2970   33.8650   15.2690 C.ar   71  TRP71       0.0006
     57  CD1        4.0990   32.8590   14.3720 C.ar   71  TRP71       0.0946
     58  CD2        4.4390   35.0650   14.5030 C.ar   71  TRP71       0.0152
     59  NE1        4.1040   33.3580   13.0910 N.ar   71  TRP71      -0.2442
     60  CE2        4.3110   34.7100   13.1420 C.ar   71  TRP71       0.0810
     61  CE3        4.6590   36.4110   14.8360 C.ar   71  TRP71       0.0012
     62  CZ2        4.3980   35.6510   12.1100 C.ar   71  TRP71       0.0191
     63  CZ3        4.7430   37.3460   13.8140 C.ar   71  TRP71       0.0001
     64  CH2        4.6120   36.9590   12.4630 C.ar   71  TRP71       0.0015
     65  N          2.7750   33.8580   19.4550 N.am   72  GLU72      -0.1977
     66  CA         2.8320   34.1810   20.8760 C.3    72  GLU72       0.1602
     67  C          2.4300   33.0840   21.8420 C.2    72  GLU72       0.2287
     68  O          2.7560   33.1590   23.0270 O.2    72  GLU72      -0.2864
     69  CB         2.0080   35.4340   21.1610 C.3    72  GLU72       0.0415
     70  CG         2.5190   36.6740   20.4520 C.3    72  GLU72       0.1163
     71  CD         1.9750   36.8160   19.0480 C.2    72  GLU72       0.3649
     72  OE1        1.7440   35.7860   18.3760 O.co2  72  GLU72      -0.2457
     73  OE2        1.7900   37.9730   18.6100 O.co2  72  GLU72      -0.2457
     74  N          7.1950   25.9690   11.3500 N.3    81  ARG81      -0.1245
     75  CA         6.1850   25.5390   10.4010 C.3    81  ARG81       0.1563
     76  C          6.7060   24.7950    9.1530 C.2    81  ARG81       0.2260
     77  O          7.7250   25.1810    8.5740 O.2    81  ARG81      -0.2867
     78  CB         5.4220   26.7900    9.9350 C.3    81  ARG81       0.0307
     79  CG         5.9240   27.2970    8.5910 C.3    81  ARG81       0.0489
     80  CD         6.0390   28.7990    8.4540 C.3    81  ARG81       0.2205
     81  NE         4.7570   29.4370    8.2200 N.pl3  81  ARG81      -0.0865
     82  CZ         4.5940   30.5360    7.4870 C.cat  81  ARG81       0.5346
     83  NH1        5.6370   31.1150    6.8990 N.pl3  81  ARG81       0.1354
     84  NH2        3.3910   31.0800    7.3790 N.pl3  81  ARG81       0.1354
     85  N         -2.3760   25.8430    9.2430 N.3   122  VAL122     -0.1245
     86  CA        -2.8790   27.1180    8.7720 C.3   122  VAL122      0.1561
     87  C         -2.9260   27.1520    7.2580 C.2   122  VAL122      0.2260
     88  O         -2.0130   26.6430    6.5890 O.2   122  VAL122     -0.2867
     89  CB        -1.9450   28.2680    9.2380 C.3   122  VAL122      0.0252
     90  CG1       -2.5220   29.6170    8.8460 C.3   122  VAL122      0.0019
     91  CG2       -1.7160   28.1760   10.7450 C.3   122  VAL122      0.0019
     92  N         -3.4480   30.0560    4.3670 N.3   124  ASN124     -0.1240
     93  CA        -3.6280   31.4590    4.0460 C.3   124  ASN124      0.1653
     94  C         -4.0060   31.5780    2.5700 C.2   124  ASN124      0.2266
     95  O         -3.3380   31.0130    1.6940 O.2   124  ASN124     -0.2867
     96  CB        -2.3450   32.2700    4.2890 C.3   124  ASN124      0.1155
     97  CG        -1.6540   31.9250    5.6000 C.2   124  ASN124      0.2627
     98  OD1       -0.6810   31.1650    5.6200 O.2   124  ASN124     -0.2716
     99  ND2       -2.1400   32.4940    6.6980 N.am  124  ASN124     -0.0877
    100  N         -4.0240   34.0060   -0.2210 N.3   126  ARG126     -0.1245
    101  CA        -3.4090   35.2730   -0.6140 C.3   126  ARG126      0.1563
    102  C         -3.2660   35.3930   -2.1290 C.2   126  ARG126      0.2260
    103  O         -3.0840   34.3970   -2.8300 O.2   126  ARG126     -0.2867
    104  CB        -2.0270   35.3900    0.0260 C.3   126  ARG126      0.0307
    105  CG        -2.0240   35.3330    1.5460 C.3   126  ARG126      0.0489
    106  CD        -2.3870   36.6670    2.1590 C.3   126  ARG126      0.2205
    107  NE        -2.2950   36.6130    3.6140 N.pl3 126  ARG126     -0.0865
    108  CZ        -3.1380   35.9500    4.4020 C.cat 126  ARG126      0.5346
    109  NH1       -4.1600   35.2770    3.8820 N.pl3 126  ARG126      0.1354
    110  NH2       -2.9480   35.9490    5.7160 N.pl3 126  ARG126      0.1354
    111  N         -0.7900   36.7610   -3.7780 N.3   128  LYS128     -0.1245
    112  CA         0.5700   36.4690   -4.2230 C.3   128  LYS128      0.1561
    113  C          0.9590   35.0020   -4.0590 C.2   128  LYS128      0.2260
    114  O          2.1350   34.6530   -4.2010 O.2   128  LYS128     -0.2867
    115  CB         1.5700   37.3620   -3.4890 C.3   128  LYS128      0.0271
    116  CG         1.7180   37.0910   -2.0610 C.3   128  LYS128      0.0035
    117  CD         2.6420   38.1320   -1.4010 C.3   128  LYS128      0.0206
    118  CE         3.0530   37.9640    0.0080 C.3   128  LYS128      0.1093
    119  NZ         2.0170   37.6810    0.9510 N.3   128  LYS128     -0.1314
    120  N         -1.0380   29.4850    0.8320 N.3   131  LYS131     -0.1245
    121  CA        -0.1350   28.7620    1.7280 C.3   131  LYS131      0.1561
    122  C         -0.8550   27.8510    2.7200 C.2   131  LYS131      0.2260
    123  O         -1.9020   28.2050    3.2700 O.2   131  LYS131     -0.2867
    124  CB         0.7340   29.7490    2.5190 C.3   131  LYS131      0.0271
    125  CG         1.8540   30.4010    1.7110 C.3   131  LYS131      0.0035
    126  CD         2.5640   31.4930    2.4990 C.3   131  LYS131      0.0206
    127  CE         1.6690   32.7060    2.7020 C.3   131  LYS131      0.1093
    128  NZ         2.3800   33.7870    3.4450 N.3   131  LYS131     -0.1314
    129  N          2.0070   23.5830   11.9750 N.3   135  TRP135     -0.1241
    130  CA         2.8140   24.1680   13.0440 C.3   135  TRP135      0.1605
    131  C          3.1630   23.1140   14.1080 C.2   135  TRP135      0.2264
    132  O          2.2880   22.3480   14.5100 O.2   135  TRP135     -0.2867
    133  CB         2.0280   25.3060   13.6950 C.3   135  TRP135      0.0550
    134  CG         1.8780   26.5280   12.8530 C.ar  135  TRP135      0.0003
    135  CD1        1.8760   26.6000   11.4770 C.ar  135  TRP135      0.0946
    136  CD2        1.6660   27.8630   13.3220 C.ar  135  TRP135      0.0152
    137  NE1        1.6760   27.8950   11.0740 N.ar  135  TRP135     -0.2442
    138  CE2        1.5440   28.6920   12.1850 C.ar  135  TRP135      0.0810
    139  CE3        1.5670   28.4420   14.5970 C.ar  135  TRP135      0.0012
    140  CZ2        1.3290   30.0720   12.2840 C.ar  135  TRP135      0.0191
    141  CZ3        1.3530   29.8150   14.6950 C.ar  135  TRP135      0.0001
    142  CH2        1.2370   30.6130   13.5410 C.ar  135  TRP135      0.0015
@<TRIPOS>BOND
     1   112   113    1
     2   112   111    1
     3   112   115    1
     4   114   113    2
     5   115   116    1
     6   103   102    2
     7   102   101    1
     8   116   117    1
     9   117   118    1
    10   101   100    1
    11   101   104    1
    12   118   119    1
    13   104   105    1
    14   120   121    1
    15   105   106    1
    16    95    94    2
    17   125   126    1
    18   125   124    1
    19   121   124    1
    20   121   122    1
    21   106   107    1
    22   126   127    1
    23    94    93    1
    24   127   128    1
    25   122   123    2
    26   107   108    2
    27   109   108    1
    28    93    96    1
    29    93    92    1
    30    96    97    1
    31   108   110    1
    32    97    98    2
    33    97    99   am
    34    41    40   ar
    35    35    36    1
    36    88    87    2
    37    36    37    1
    38    36    39    1
    39    83    82    1
    40    87    86    1
    41    40    39    1
    42    40    42   ar
    43    84    82    1
    44    82    81    2
    45    37    38    2
    46     4     3    2
    47    81    80    1
    48    80    79    1
    49    77    76    2
    50    79    78    1
    51     8    10   ar
    52     8     6   ar
    53    10    11   ar
    54    86    89    1
    55    86    85    1
    56    90    89    1
    57     3     2    1
    58    76    75    1
    59    89    91    1
    60     5     6    1
    61     5     2    1
    62     6     7   ar
    63    78    75    1
    64    11     9   ar
    65     1     2    1
    66    75    74    1
    67     7     9   ar
    68   137   135   ar
    69   137   138   ar
    70    20    18   ar
    71    20    21   ar
    72    18    17   ar
    73   135   134   ar
    74   129   130    1
    75    62    64   ar
    76    62    60   ar
    77   138   140   ar
    78   138   136   ar
    79   140   142   ar
    80    21    23   ar
    81    21    19   ar
    82    64    63   ar
    83    23    25   ar
    84    17    19   ar
    85    17    16    1
    86   134   136   ar
    87   134   133    1
    88   130   133    1
    89   130   131    1
    90    59    60   ar
    91    59    57   ar
    92    60    58   ar
    93   136   139   ar
    94    19    22   ar
    95    16    13    1
    96    13    12    1
    97    13    14    1
    98   142   141   ar
    99    63    61   ar
   100    25    24   ar
   101    15    14    2
   102   131   132    2
   103    57    56   ar
   104    14    26   am
   105    58    61   ar
   106    58    56   ar
   107   139   141   ar
   108    22    24   ar
   109    56    55    1
   110    26    27    1
   111    27    28    1
   112    27    30    1
   113    55    52    1
   114    44    43    1
   115    44    45    1
   116    44    47    1
   117    28    29    2
   118    51    45   am
   119    51    52    1
   120    45    46    2
   121    52    53    1
   122    47    48    1
   123    30    31    1
   124    72    71   ar
   125    73    71   ar
   126    53    65   am
   127    53    54    2
   128    48    49    1
   129    71    70    1
   130    31    32    1
   131    65    66    1
   132    49    50    1
   133    33    32    2
   134    32    34   am
   135    70    69    1
   136    66    69    1
   137    66    67    1
   138    67    68    2
