@<TRIPOS>MOLECULE
tmp/1ejiD02.pdb
 104 96 0 0 0
SMALL
GASTEIGER

@<TRIPOS>ATOM
      1  N        140.4180   61.9040   58.5550 N.3   134  LEU134     -0.1245
      2  CA       141.5830   61.1140   58.9400 C.3   134  LEU134      0.1561
      3  C        142.0240   60.0860   57.9040 C.2   134  LEU134      0.2260
      4  O        143.1550   60.1230   57.4260 O.2   134  LEU134     -0.2867
      5  CB       141.2920   60.4140   60.2730 C.3   134  LEU134      0.0270
      6  CG       142.4830   59.8560   61.0510 C.3   134  LEU134      0.0019
      7  CD1      143.5180   60.9580   61.2150 C.3   134  LEU134      0.0001
      8  CD2      142.0240   59.3350   62.4070 C.3   134  LEU134      0.0001
      9  N        144.1190   63.0740   56.5360 N.3   138  GLY138     -0.1210
     10  CA       144.3000   64.0860   57.5540 C.3   138  GLY138      0.1956
     11  C        144.9650   63.5640   58.8040 C.2   138  GLY138      0.2612
     12  O        145.3020   62.3870   58.9090 O.2   138  GLY138     -0.2717
     13  N        145.1460   64.4580   59.7610 N.am  139  HIS139     -0.1961
     14  CA       145.7650   64.1170   61.0250 C.3   139  HIS139      0.1787
     15  C        144.7610   64.3190   62.1710 C.2   139  HIS139      0.2620
     16  O        143.9570   65.2440   62.1460 O.2   139  HIS139     -0.2715
     17  CB       146.9990   65.0010   61.2140 C.3   139  HIS139      0.0785
     18  CG       147.7460   64.7440   62.4840 C.ar  139  HIS139      0.0821
     19  ND1      147.2720   65.1300   63.7180 N.ar  139  HIS139     -0.2267
     20  CD2      148.9480   64.1640   62.7070 C.ar  139  HIS139      0.1154
     21  CE1      148.1530   64.8030   64.6470 C.ar  139  HIS139      0.1986
     22  NE2      149.1790   64.2160   64.0590 N.ar  139  HIS139     -0.2212
     23  N        144.7940   63.4400   63.1630 N.am  140  LEU140     -0.1977
     24  CA       143.9020   63.5510   64.3100 C.3   140  LEU140      0.1596
     25  C        143.6480   64.9840   64.7810 C.2   140  LEU140      0.2287
     26  O        142.5130   65.3610   65.0280 O.2   140  LEU140     -0.2864
     27  CB       144.4610   62.7520   65.4830 C.3   140  LEU140      0.0297
     28  CG       144.1710   61.2610   65.5550 C.3   140  LEU140      0.0022
     29  CD1      144.7730   60.6890   66.8320 C.3   140  LEU140      0.0001
     30  CD2      142.6650   61.0510   65.5380 C.3   140  LEU140      0.0001
     31  N        138.7800   64.5490   64.6470 N.3   144  PHE144     -0.1241
     32  CA       138.3690   63.2150   64.2280 C.3   144  PHE144      0.1605
     33  C        137.3340   62.6040   65.1750 C.2   144  PHE144      0.2264
     34  O        137.6560   62.2590   66.3170 O.2   144  PHE144     -0.2867
     35  CB       139.5470   62.2540   64.1490 C.3   144  PHE144      0.0534
     36  CG       139.1240   60.8420   63.8620 C.ar  144  PHE144     -0.0203
     37  CD1      138.4350   60.5390   62.6820 C.ar  144  PHE144     -0.0042
     38  CD2      139.3280   59.8370   64.7950 C.ar  144  PHE144     -0.0042
     39  CE1      137.9490   59.2600   62.4410 C.ar  144  PHE144     -0.0003
     40  CE2      138.8460   58.5550   64.5630 C.ar  144  PHE144     -0.0003
     41  CZ       138.1520   58.2670   63.3820 C.ar  144  PHE144     -0.0000
     42  N        133.1570   60.4030   65.4870 N.3   145  THR145     -0.1218
     43  CA       132.3490   59.2630   65.0630 C.3   145  THR145      0.1862
     44  C        130.8690   59.4500   65.4090 C.2   145  THR145      0.2287
     45  O        130.5110   60.3490   66.1730 O.2   145  THR145     -0.2866
     46  CB       132.9240   57.9800   65.7250 C.3   145  THR145      0.1770
     47  OG1      133.8580   57.3890   64.8230 O.3   145  THR145     -0.2211
     48  CG2      131.8450   56.9770   66.1200 C.3   145  THR145      0.0375
     49  N        131.3040   58.2380   69.1680 N.3   148  LYS148     -0.1245
     50  CA       132.1080   59.0390   70.0960 C.3   148  LYS148      0.1561
     51  C        133.0210   60.0990   69.4320 C.2   148  LYS148      0.2260
     52  O        133.4340   59.9350   68.2810 O.2   148  LYS148     -0.2867
     53  CB       132.9590   58.0800   70.9240 C.3   148  LYS148      0.0271
     54  CG       133.8630   58.7170   71.9450 C.3   148  LYS148      0.0035
     55  CD       134.9950   57.7580   72.2950 C.3   148  LYS148      0.0206
     56  CE       134.4760   56.3870   72.7180 C.3   148  LYS148      0.1093
     57  NZ       135.5800   55.4130   72.9560 N.3   148  LYS148     -0.1314
     58  N        136.4450   61.3620   69.3760 N.3   150  ILE150     -0.1245
     59  CA       137.7600   60.8550   69.7560 C.3   150  ILE150      0.1561
     60  C        138.8660   61.8560   70.0670 C.2   150  ILE150      0.2260
     61  O        139.3220   61.9320   71.1980 O.2   150  ILE150     -0.2867
     62  CB       138.3150   59.9070   68.6750 C.3   150  ILE150      0.0252
     63  CG1      137.2880   58.8420   68.2940 C.3   150  ILE150      0.0019
     64  CG2      139.5520   59.2350   69.1990 C.3   150  ILE150      0.0019
     65  CD1      137.0060   57.8640   69.3970 C.3   150  ILE150      0.0001
     66  N        148.8370   64.3050   56.5020 N.3   192  SER192     -0.1202
     67  CA       149.8440   63.4340   57.0860 C.3   192  SER192      0.2020
     68  C        150.0900   62.3110   56.0790 C.2   192  SER192      0.2619
     69  O        151.0750   61.5810   56.1760 O.2   192  SER192     -0.2717
     70  CB       149.3670   62.8560   58.4210 C.3   192  SER192      0.2103
     71  OG       148.2210   62.0460   58.2420 O.3   192  SER192     -0.2182
     72  N        149.1920   62.1940   55.1010 N.am  193  CYS193     -0.1969
     73  CA       149.3150   61.1600   54.0770 C.3   193  CYS193      0.1712
     74  C        148.6390   61.5300   52.7560 C.2   193  CYS193      0.2296
     75  O        147.6540   60.9190   52.3580 O.2   193  CYS193     -0.2864
     76  CB       148.7310   59.8520   54.5990 C.3   193  CYS193      0.0983
     77  SG       149.2260   58.4250   53.6450 S.3   193  CYS193     -0.0798
     78  N        154.4210   52.1760   57.8930 N.3   369  ASN369     -0.1240
     79  CA       153.2370   52.8810   58.3800 C.3   369  ASN369      0.1653
     80  C        152.1380   52.1910   57.5830 C.2   369  ASN369      0.2266
     81  O        152.1330   52.2720   56.3580 O.2   369  ASN369     -0.2867
     82  CB       153.2580   54.3570   57.9670 C.3   369  ASN369      0.1155
     83  CG       154.0590   55.2300   58.9080 C.2   369  ASN369      0.2627
     84  OD1      154.4770   56.3330   58.5420 O.2   369  ASN369     -0.2716
     85  ND2      154.2630   54.7570   60.1280 N.am  369  ASN369     -0.0877
     86  N        149.1160   52.8510   56.5770 N.3   371  ASN371     -0.1240
     87  CA       148.0420   53.8270   56.4600 C.3   371  ASN371      0.1653
     88  C        146.8330   53.3000   55.6790 C.2   371  ASN371      0.2266
     89  O        146.9170   52.3390   54.9130 O.2   371  ASN371     -0.2867
     90  CB       148.5650   55.1060   55.8060 C.3   371  ASN371      0.1155
     91  CG       147.5830   56.2360   55.9050 C.2   371  ASN371      0.2627
     92  OD1      147.1930   56.6260   57.0010 O.2   371  ASN371     -0.2716
     93  ND2      147.1660   56.7660   54.7640 N.am  371  ASN371     -0.0877
     94  N        152.5690   53.4570   53.9790 N.3   386  ARG386     -0.1245
     95  CA       153.0500   54.8170   53.7760 C.3   386  ARG386      0.1563
     96  C        154.5650   54.8270   53.8410 C.2   386  ARG386      0.2260
     97  O        155.1410   54.4480   54.8560 O.2   386  ARG386     -0.2867
     98  CB       152.4790   55.7340   54.8560 C.3   386  ARG386      0.0307
     99  CG       152.4770   57.1930   54.4840 C.3   386  ARG386      0.0489
    100  CD       153.2440   58.0210   55.4850 C.3   386  ARG386      0.2205
    101  NE       152.7400   57.8630   56.8440 N.pl3 386  ARG386     -0.0865
    102  CZ       153.0260   58.6900   57.8440 C.cat 386  ARG386      0.5346
    103  NH1      153.8010   59.7460   57.6310 N.pl3 386  ARG386      0.1354
    104  NH2      152.5280   58.4690   59.0520 N.pl3 386  ARG386      0.1354
@<TRIPOS>BOND
     1    75    74    2
     2    74    73    1
     3    77    76    1
     4    95    96    1
     5    95    94    1
     6    95    98    1
     7    96    97    2
     8    73    76    1
     9    73    72    1
    10    99    98    1
    11    99   100    1
    12    93    91   am
    13    89    88    2
    14    72    68   am
    15   100   101    1
    16    88    87    1
    17    90    91    1
    18    90    87    1
    19    91    92    2
    20    68    69    2
    21    68    67    1
    22    81    80    2
    23    87    86    1
    24    66    67    1
    25     9    10    1
    26   101   102    2
    27    67    70    1
    28     4     3    2
    29    10    11    1
    30    80    79    1
    31   103   102    1
    32   102   104    1
    33    78    79    1
    34     3     2    1
    35    82    79    1
    36    82    83    1
    37    71    70    1
    38    84    83    2
    39     1     2    1
    40    11    12    2
    41    11    13   am
    42    83    85   am
    43     2     5    1
    44    13    14    1
    45     5     6    1
    46    14    17    1
    47    14    15    1
    48     6     7    1
    49     6     8    1
    50    17    18    1
    51    16    15    2
    52    15    23   am
    53    39    37   ar
    54    39    41   ar
    55    18    20   ar
    56    18    19   ar
    57    37    36   ar
    58    20    22   ar
    59    23    24    1
    60    41    40   ar
    61    19    21   ar
    62    36    35    1
    63    36    38   ar
    64    22    21   ar
    65    35    32    1
    66    32    31    1
    67    32    33    1
    68    24    25    1
    69    24    27    1
    70    40    38   ar
    71    25    26    2
    72    47    46    1
    73    43    44    1
    74    43    42    1
    75    43    46    1
    76    33    34    2
    77    44    45    2
    78    27    28    1
    79    30    28    1
    80    28    29    1
    81    46    48    1
    82    52    51    2
    83    63    62    1
    84    63    65    1
    85    62    64    1
    86    62    59    1
    87    49    50    1
    88    58    59    1
    89    51    50    1
    90    59    60    1
    91    60    61    2
    92    50    53    1
    93    53    54    1
    94    54    55    1
    95    55    56    1
    96    56    57    1
