@<TRIPOS>MOLECULE
tmp/1ejjA00.pdb
 141 133 0 0 0
SMALL
GASTEIGER

@<TRIPOS>ATOM
      1  N         17.7550   78.0430    0.9220 N.3    59  ASN59      -0.1225
      2  CA        17.3550   77.4320    2.1860 C.3    59  ASN59       0.1785
      3  C         16.8600   76.0100    1.9430 C.2    59  ASN59       0.2597
      4  O         16.7710   75.5580    0.8040 O.2    59  ASN59      -0.2718
      5  CB        16.2670   78.2600    2.8800 C.3    59  ASN59       0.1169
      6  CG        14.9850   78.3280    2.0800 C.2    59  ASN59       0.2627
      7  OD1       14.2720   77.3340    1.9430 O.2    59  ASN59      -0.2716
      8  ND2       14.6850   79.5060    1.5410 N.am   59  ASN59      -0.0877
      9  N         16.5450   75.3060    3.0190 N.am   60  SER60      -0.1952
     10  CA        16.0810   73.9270    2.9260 C.3    60  SER60       0.1924
     11  C         14.8480   73.7140    2.0550 C.2    60  SER60       0.2314
     12  O         14.8280   72.8060    1.2290 O.2    60  SER60      -0.2863
     13  CB        15.8050   73.3730    4.3210 C.3    60  SER60       0.2116
     14  OG        16.9990   73.1670    5.0530 O.3    60  SER60      -0.2180
     15  N         13.1090   84.1050    3.8330 N.3   120  VAL120     -0.1231
     16  CA        13.0670   82.6420    3.8760 C.3   120  VAL120      0.1692
     17  C         11.6920   82.1030    4.2680 C.2   120  VAL120      0.2592
     18  O         11.2240   81.1110    3.7160 O.2   120  VAL120     -0.2718
     19  CB        14.1320   82.1010    4.8500 C.3   120  VAL120      0.0266
     20  CG1       14.0320   80.6010    4.9560 C.3   120  VAL120      0.0020
     21  CG2       15.5100   82.4940    4.3610 C.3   120  VAL120      0.0020
     22  N         11.0510   82.7590    5.2260 N.am  121  HIS121     -0.1976
     23  CA         9.7210   82.3550    5.6740 C.3   121  HIS121      0.1656
     24  C          8.7200   83.4690    5.3920 C.2   121  HIS121      0.2291
     25  O          7.5140   83.2400    5.3880 O.2   121  HIS121     -0.2864
     26  CB         9.7220   82.0620    7.1740 C.3   121  HIS121      0.0771
     27  CG        10.4210   80.7940    7.5410 C.ar  121  HIS121      0.0820
     28  ND1        9.7530   79.6050    7.7410 N.ar  121  HIS121     -0.2267
     29  CD2       11.7320   80.5310    7.7500 C.ar  121  HIS121      0.1154
     30  CE1       10.6220   78.6630    8.0560 C.ar  121  HIS121      0.1986
     31  NE2       11.8290   79.1980    8.0690 N.ar  121  HIS121     -0.2212
     32  N         17.3720   84.6830   13.0260 N.3   151  ARG151     -0.1231
     33  CA        17.8950   83.4260   12.4810 C.3   151  ARG151      0.1694
     34  C         18.1580   83.5530   10.9770 C.2   151  ARG151      0.2592
     35  O         19.0200   82.8700   10.4210 O.2   151  ARG151     -0.2718
     36  CB        16.8850   82.3050   12.7440 C.3   151  ARG151      0.0321
     37  CG        17.3760   80.8970   12.4860 C.3   151  ARG151      0.0489
     38  CD        16.4950   79.8920   13.2250 C.3   151  ARG151      0.2205
     39  NE        16.7060   78.5110   12.7900 N.pl3 151  ARG151     -0.0865
     40  CZ        17.3900   77.6040   13.4840 C.cat 151  ARG151      0.5346
     41  NH1       17.9310   77.9280   14.6510 N.pl3 151  ARG151      0.1354
     42  NH2       17.5370   76.3720   13.0120 N.pl3 151  ARG151      0.1354
     43  N         17.3980   84.4230   10.3220 N.am  152  ASP152     -0.1974
     44  CA        17.5560   84.6460    8.8920 C.3   152  ASP152      0.1709
     45  C         18.1750   86.0240    8.7020 C.2   152  ASP152      0.2293
     46  O         18.4320   86.4590    7.5820 O.2   152  ASP152     -0.2864
     47  CB        16.1980   84.5800    8.1880 C.3   152  ASP152      0.1436
     48  CG        15.5720   83.1910    8.2410 C.2   152  ASP152      0.3671
     49  OD1       16.3300   82.1980    8.2410 O.co2 152  ASP152     -0.2456
     50  OD2       14.3250   83.0920    8.2830 O.co2 152  ASP152     -0.2456
     51  N         10.5090   83.6340   17.0980 N.3   183  ARG183     -0.1245
     52  CA        10.0350   82.5990   16.1900 C.3   183  ARG183      0.1563
     53  C         10.2300   81.2240   16.8380 C.2   183  ARG183      0.2260
     54  O          9.7140   80.2110   16.3750 O.2   183  ARG183     -0.2867
     55  CB        10.8120   82.6790   14.8800 C.3   183  ARG183      0.0307
     56  CG        12.2800   82.9820   15.0800 C.3   183  ARG183      0.0489
     57  CD        13.0310   82.9280   13.7670 C.3   183  ARG183      0.2205
     58  NE        12.7850   81.6830   13.0510 N.pl3 183  ARG183     -0.0865
     59  CZ        13.1070   81.4770   11.7780 C.cat 183  ARG183      0.5346
     60  NH1       13.6890   82.4370   11.0730 N.pl3 183  ARG183      0.1354
     61  NH2       12.8400   80.3110   11.2090 N.pl3 183  ARG183      0.1354
     62  N          8.6260   73.7940   14.7380 N.3   189  ARG189     -0.1245
     63  CA         8.3500   72.7960   13.7190 C.3   189  ARG189      0.1563
     64  C          8.7130   71.4110   14.2530 C.2   189  ARG189      0.2260
     65  O          8.7450   70.4300   13.5030 O.2   189  ARG189     -0.2867
     66  CB         9.1530   73.1120   12.4540 C.3   189  ARG189      0.0307
     67  CG        10.6550   72.9650   12.6110 C.3   189  ARG189      0.0489
     68  CD        11.3450   72.8190   11.2630 C.3   189  ARG189      0.2205
     69  NE        12.7980   72.8010   11.4100 N.pl3 189  ARG189     -0.0865
     70  CZ        13.6430   73.4100   10.5870 C.cat 189  ARG189      0.5346
     71  NH1       13.1820   74.0900    9.5440 N.pl3 189  ARG189      0.1354
     72  NH2       14.9490   73.3480   10.8120 N.pl3 189  ARG189      0.1354
     73  N          6.3230   80.0110    3.9700 N.3   259  ARG259     -0.1245
     74  CA         6.9920   78.7190    4.0960 C.3   259  ARG259      0.1563
     75  C          6.1110   77.8990    5.0270 C.2   259  ARG259      0.2260
     76  O          5.7540   78.3540    6.1110 O.2   259  ARG259     -0.2867
     77  CB         8.3920   78.8680    4.6690 C.3   259  ARG259      0.0307
     78  CG         9.1730   77.5840    4.5540 C.3   259  ARG259      0.0489
     79  CD        10.6480   77.7970    4.7700 C.3   259  ARG259      0.2205
     80  NE        11.2190   76.7050    5.5510 N.pl3 259  ARG259     -0.0865
     81  CZ        12.5120   76.3970    5.5790 C.cat 259  ARG259      0.5346
     82  NH1       13.3810   77.0990    4.8710 N.pl3 259  ARG259      0.1354
     83  NH2       12.9380   75.3950    6.3300 N.pl3 259  ARG259      0.1354
     84  N          7.3300   75.7120    9.2600 N.3   262  ARG262     -0.1245
     85  CA         7.2300   76.3940   10.5460 C.3   262  ARG262      0.1563
     86  C          5.9230   77.1630   10.7640 C.2   262  ARG262      0.2260
     87  O          5.7820   77.8700   11.7650 O.2   262  ARG262     -0.2867
     88  CB         8.4140   77.3380   10.7290 C.3   262  ARG262      0.0307
     89  CG         9.6260   76.6850   11.3610 C.3   262  ARG262      0.0489
     90  CD        10.7210   77.7180   11.6250 C.3   262  ARG262      0.2205
     91  NE        12.0470   77.1120   11.7090 N.pl3 262  ARG262     -0.0865
     92  CZ        12.4920   76.4420   12.7640 C.cat 262  ARG262      0.5346
     93  NH1       11.7220   76.2850   13.8340 N.pl3 262  ARG262      0.1354
     94  NH2       13.7090   75.9290   12.7500 N.pl3 262  ARG262      0.1354
     95  N         15.3310   68.0510    9.9370 N.3   334  LYS334     -0.1245
     96  CA        15.2950   68.0280    8.4770 C.3   334  LYS334      0.1561
     97  C         14.3930   66.9400    7.8970 C.2   334  LYS334      0.2260
     98  O         14.4220   66.7070    6.6930 O.2   334  LYS334     -0.2867
     99  CB        16.7060   67.8640    7.9030 C.3   334  LYS334      0.0271
    100  CG        17.6180   69.0780    8.0720 C.3   334  LYS334      0.0035
    101  CD        16.9430   70.3750    7.6630 C.3   334  LYS334      0.0206
    102  CE        17.6370   71.5660    8.2960 C.3   334  LYS334      0.1093
    103  NZ        17.2460   72.8360    7.6430 N.3   334  LYS334     -0.1314
    104  N         23.8940   72.9200    9.2070 N.3   401  ASP401     -0.1239
    105  CA        22.9370   73.9990    9.2000 C.3   401  ASP401      0.1674
    106  C         22.3610   74.3170   10.5730 C.2   401  ASP401      0.2266
    107  O         22.3140   75.4720   10.9980 O.2   401  ASP401     -0.2867
    108  CB        21.8040   73.6500    8.2710 C.3   401  ASP401      0.1410
    109  CG        20.7280   74.6680    8.3210 C.2   401  ASP401      0.3668
    110  OD1       20.9920   75.7420    7.7530 O.co2 401  ASP401     -0.2456
    111  OD2       19.6750   74.3920    8.9400 O.co2 401  ASP401     -0.2456
    112  N         23.5500   77.6680   12.6100 N.3   405  HIS405     -0.1241
    113  CA        22.5740   78.7210   12.8440 C.3   405  HIS405      0.1621
    114  C         22.8060   79.3740   14.2020 C.2   405  HIS405      0.2264
    115  O         22.2210   80.4190   14.4970 O.2   405  HIS405     -0.2867
    116  CB        21.1630   78.1400   12.8160 C.3   405  HIS405      0.0745
    117  CG        20.4960   78.2260   11.4820 C.ar  405  HIS405      0.0817
    118  ND1       20.4020   79.4040   10.7710 N.ar  405  HIS405     -0.2268
    119  CD2       19.8540   77.2890   10.7490 C.ar  405  HIS405      0.1154
    120  CE1       19.7250   79.1930    9.6580 C.ar  405  HIS405      0.1986
    121  NE2       19.3820   77.9170    9.6240 N.ar  405  HIS405     -0.2212
    122  N         22.3600   74.3030    0.4440 N.3   443  HIS443     -0.1241
    123  CA        22.7670   75.7080    0.5500 C.3   443  HIS443      0.1621
    124  C         23.8680   75.8620    1.6140 C.2   443  HIS443      0.2264
    125  O         24.2250   74.8990    2.3080 O.2   443  HIS443     -0.2867
    126  CB        21.5810   76.5720    0.9480 C.3   443  HIS443      0.0745
    127  CG        20.9840   76.1710    2.2620 C.ar  443  HIS443      0.0817
    128  ND1       21.5720   76.4840    3.4700 N.ar  443  HIS443     -0.2268
    129  CD2       19.9080   75.4040    2.5590 C.ar  443  HIS443      0.1154
    130  CE1       20.8850   75.9250    4.4530 C.ar  443  HIS443      0.1986
    131  NE2       19.8710   75.2660    3.9260 N.ar  443  HIS443     -0.2212
    132  N         22.0280   81.7870    6.5970 N.3   460  HIS460     -0.1241
    133  CA        22.6150   81.1130    5.4530 C.3   460  HIS460      0.1621
    134  C         23.5650   82.0390    4.7090 C.2   460  HIS460      0.2264
    135  O         23.6210   83.2360    4.9780 O.2   460  HIS460     -0.2867
    136  CB        21.5170   80.6830    4.4880 C.3   460  HIS460      0.0745
    137  CG        20.5380   79.7210    5.0780 C.ar  460  HIS460      0.0817
    138  ND1       19.3440   79.4050    4.4650 N.ar  460  HIS460     -0.2268
    139  CD2       20.5800   78.9900    6.2160 C.ar  460  HIS460      0.1154
    140  CE1       18.6920   78.5230    5.1990 C.ar  460  HIS460      0.1986
    141  NE2       19.4210   78.2540    6.2670 N.ar  460  HIS460     -0.2212
@<TRIPOS>BOND
     1   122   123    1
     2   123   126    1
     3   123   124    1
     4     4     3    2
     5     1     2    1
     6   126   127    1
     7    12    11    2
     8     8     6   am
     9   124   125    2
    10     3     2    1
    11     3     9   am
    12     7     6    2
    13    11    10    1
    14     6     5    1
    15     2     5    1
    16   127   129   ar
    17   127   128   ar
    18   129   131   ar
    19    10     9    1
    20    10    13    1
    21   128   130   ar
    22    18    17    2
    23    15    16    1
    24    16    17    1
    25    16    19    1
    26   131   130   ar
    27    73    74    1
    28    74    77    1
    29    74    75    1
    30    17    22   am
    31    13    14    1
    32    21    19    1
    33   138   137   ar
    34   138   140   ar
    35   136   137    1
    36   136   133    1
    37    78    77    1
    38    78    79    1
    39   134   135    2
    40   134   133    1
    41    79    80    1
    42    19    20    1
    43    82    81    1
    44    75    76    2
    45   137   139   ar
    46   140   141   ar
    47    22    23    1
    48    25    24    2
    49    24    23    1
    50   133   132    1
    51    80    81    2
    52    81    83    1
    53    23    26    1
    54   139   141   ar
    55    98    97    2
    56    26    27    1
    57    27    28   ar
    58    27    29   ar
    59    46    45    2
    60   103   102    1
    61   101   100    1
    62   101   102    1
    63    28    30   ar
    64    29    31   ar
    65   110   109   ar
    66    97    96    1
    67    99   100    1
    68    99    96    1
    69    30    31   ar
    70    47    48    1
    71    47    44    1
    72    48    49   ar
    73    48    50   ar
    74   108   109    1
    75   108   105    1
    76   109   111   ar
    77    96    95    1
    78    45    44    1
    79    44    43    1
    80   105   104    1
    81   105   106    1
    82    84    85    1
    83    71    70    1
    84   121   120   ar
    85   121   119   ar
    86   120   118   ar
    87    43    34   am
    88    35    34    2
    89    85    88    1
    90    85    86    1
    91   106   107    2
    92    70    72    1
    93    70    69    2
    94    88    89    1
    95   119   117   ar
    96    86    87    2
    97   118   117   ar
    98    34    33    1
    99    60    59    1
   100    61    59    1
   101    68    69    1
   102    68    67    1
   103    89    90    1
   104   117   116    1
   105    90    91    1
   106    91    92    2
   107    59    58    2
   108    66    67    1
   109    66    63    1
   110    33    36    1
   111    33    32    1
   112    37    36    1
   113    37    38    1
   114   112   113    1
   115    94    92    1
   116    92    93    1
   117    39    38    1
   118    39    40    2
   119   116   113    1
   120   113   114    1
   121    42    40    1
   122    58    57    1
   123    40    41    1
   124    65    64    2
   125    63    64    1
   126    63    62    1
   127    57    56    1
   128   114   115    2
   129    55    56    1
   130    55    52    1
   131    52    53    1
   132    52    51    1
   133    54    53    2
