@<TRIPOS>MOLECULE
tmp/1ejlC00.pdb
 206 195 0 0 0
SMALL
GASTEIGER

@<TRIPOS>ATOM
      1  N         48.4020   69.8840   51.1800 N.3   169  LYS169     -0.1245
      2  CA        49.1360   68.6580   50.8600 C.3   169  LYS169      0.1561
      3  C         50.6340   68.7010   50.5430 C.2   169  LYS169      0.2260
      4  O         51.3140   67.6800   50.6880 O.2   169  LYS169     -0.2867
      5  CB        48.4540   67.9390   49.6880 C.3   169  LYS169      0.0271
      6  CG        47.1270   67.2820   49.9910 C.3   169  LYS169      0.0035
      7  CD        46.5230   66.7180   48.7160 C.3   169  LYS169      0.0206
      8  CE        47.4820   65.7820   48.0070 C.3   169  LYS169      0.1093
      9  NZ        46.8780   65.2840   46.7430 N.3   169  LYS169     -0.1314
     10  N         42.7510   62.4730   54.6880 N.3   208  THR208     -0.1203
     11  CA        42.5940   61.2670   53.8600 C.3   208  THR208      0.1994
     12  C         42.9070   61.4660   52.3800 C.2   208  THR208      0.2618
     13  O         42.7200   60.5470   51.5830 O.2   208  THR208     -0.2717
     14  CB        41.1690   60.6680   53.9470 C.3   208  THR208      0.1784
     15  OG1       40.2070   61.6800   53.6510 O.3   208  THR208     -0.2211
     16  CG2       40.9030   60.0880   55.3270 C.3   208  THR208      0.0376
     17  N         43.3800   62.6560   52.0170 N.am  209  ASP209     -0.1959
     18  CA        43.7360   62.9770   50.6340 C.3   209  ASP209      0.1840
     19  C         45.2490   62.8670   50.4410 C.2   209  ASP209      0.2623
     20  O         45.9830   63.8300   50.6480 O.2   209  ASP209     -0.2715
     21  CB        43.2770   64.3990   50.2980 C.3   209  ASP209      0.1450
     22  CG        43.6910   64.8490   48.8970 C.2   209  ASP209      0.3671
     23  OD1       43.5400   66.0550   48.6040 O.co2 209  ASP209     -0.2456
     24  OD2       44.1550   64.0170   48.0860 O.co2 209  ASP209     -0.2456
     25  N         45.7070   61.6870   50.0400 N.am  210  GLY210     -0.1940
     26  CA        47.1260   61.4740   49.8220 C.3   210  GLY210      0.1998
     27  C         47.4390   59.9950   49.9060 C.2   210  GLY210      0.2481
     28  O         46.5410   59.1850   49.6800 O.2   210  GLY210     -0.2729
     29  N         48.6890   59.6060   50.2230 N.am  211  PRO211     -0.2715
     30  CA        49.1140   58.2020   50.3410 C.3   211  PRO211      0.1536
     31  C         48.1920   57.3580   51.2450 C.2   211  PRO211      0.2598
     32  O         47.5020   57.8900   52.1240 O.2   211  PRO211     -0.2715
     33  CB        50.5250   58.3280   50.9050 C.3   211  PRO211      0.0310
     34  CG        51.0050   59.5810   50.2650 C.3   211  PRO211      0.0237
     35  CD        49.8350   60.5080   50.4350 C.3   211  PRO211      0.0939
     36  N         48.1930   56.0420   51.0400 N.am  212  ASN212     -0.1973
     37  CA        47.3390   55.1550   51.8280 C.3   212  ASN212      0.1688
     38  C         47.7080   55.0790   53.3090 C.2   212  ASN212      0.2292
     39  O         46.8610   54.7380   54.1390 O.2   212  ASN212     -0.2864
     40  CB        47.3290   53.7490   51.2180 C.3   212  ASN212      0.1181
     41  CG        46.8590   53.7420   49.7700 C.2   212  ASN212      0.2629
     42  OD1       46.5160   52.6990   49.2260 O.2   212  ASN212     -0.2716
     43  ND2       46.8550   54.9080   49.1380 N.am  212  ASN212     -0.0877
     44  N         45.6290   57.5550   54.8820 N.3   215  ILE215     -0.1245
     45  CA        44.2570   57.0900   54.9770 C.3   215  ILE215      0.1561
     46  C         44.1450   56.1190   56.1510 C.2   215  ILE215      0.2260
     47  O         43.2090   56.1930   56.9440 O.2   215  ILE215     -0.2867
     48  CB        43.8250   56.3750   53.6820 C.3   215  ILE215      0.0252
     49  CG1       43.9040   57.3570   52.5110 C.3   215  ILE215      0.0019
     50  CG2       42.4090   55.8160   53.8270 C.3   215  ILE215      0.0019
     51  CD1       43.4410   56.7840   51.2000 C.3   215  ILE215      0.0001
     52  N         33.2670   63.5310   50.4840 N.3   244  ARG244     -0.1245
     53  CA        34.6470   63.7200   50.0710 C.3   244  ARG244      0.1563
     54  C         35.5830   62.8040   50.8660 C.2   244  ARG244      0.2260
     55  O         36.4790   62.1740   50.2960 O.2   244  ARG244     -0.2867
     56  CB        35.0440   65.1800   50.2770 C.3   244  ARG244      0.0307
     57  CG        36.5120   65.4310   50.0770 C.3   244  ARG244      0.0489
     58  CD        36.9180   65.2580   48.6330 C.3   244  ARG244      0.2205
     59  NE        36.5390   66.4230   47.8430 N.pl3 244  ARG244     -0.0865
     60  CZ        36.7430   66.5370   46.5350 C.cat 244  ARG244      0.5346
     61  NH1       37.3300   65.5490   45.8580 N.pl3 244  ARG244      0.1354
     62  NH2       36.3530   67.6380   45.9060 N.pl3 244  ARG244      0.1354
     63  N         37.7790   59.7310   49.3380 N.3   248  ASN248     -0.1240
     64  CA        39.2320   59.6030   49.4130 C.3   248  ASN248      0.1653
     65  C         39.6180   58.2270   49.9440 C.2   248  ASN248      0.2266
     66  O         40.4520   57.5330   49.3580 O.2   248  ASN248     -0.2867
     67  CB        39.8370   60.6500   50.3430 C.3   248  ASN248      0.1155
     68  CG        39.8340   62.0290   49.7490 C.2   248  ASN248      0.2627
     69  OD1       40.0230   62.2030   48.5440 O.2   248  ASN248     -0.2716
     70  ND2       39.6450   63.0300   50.5970 N.am  248  ASN248     -0.0877
     71  N         38.3030   55.4900   49.7260 N.3   250  VAL250     -0.1231
     72  CA        38.1580   54.4050   48.7470 C.3   250  VAL250      0.1692
     73  C         39.1210   54.5040   47.5620 C.2   250  VAL250      0.2593
     74  O         38.9680   53.7950   46.5650 O.2   250  VAL250     -0.2718
     75  CB        36.7080   54.2930   48.1990 C.3   250  VAL250      0.0266
     76  CG1       35.7270   54.1100   49.3450 C.3   250  VAL250      0.0020
     77  CG2       36.3630   55.5160   47.3660 C.3   250  VAL250      0.0020
     78  N         40.1060   55.3870   47.6640 N.am  251  THR251     -0.1939
     79  CA        41.1040   55.5120   46.6090 C.3   251  THR251      0.2028
     80  C         42.3030   54.6990   47.1000 C.2   251  THR251      0.2642
     81  O         43.3120   54.5510   46.4080 O.2   251  THR251     -0.2714
     82  CB        41.5410   56.9830   46.3710 C.3   251  THR251      0.1808
     83  OG1       42.0780   57.5340   47.5780 O.3   251  THR251     -0.2208
     84  CG2       40.3630   57.8280   45.9140 C.3   251  THR251      0.0379
     85  N         42.1710   54.1540   48.3050 N.am  252  GLY252     -0.1954
     86  CA        43.2430   53.3630   48.8790 C.3   252  GLY252      0.1869
     87  C         43.1770   51.8750   48.5810 C.2   252  GLY252      0.2309
     88  O         42.7150   51.4520   47.5180 O.2   252  GLY252     -0.2863
     89  N         42.0290   47.9220   48.9110 N.3   254  ASP254     -0.1239
     90  CA        40.6990   47.3410   48.8810 C.3   254  ASP254      0.1674
     91  C         40.2050   47.0170   50.2740 C.2   254  ASP254      0.2266
     92  O         38.9990   46.8780   50.4910 O.2   254  ASP254     -0.2867
     93  CB        40.6970   46.0970   48.0110 C.3   254  ASP254      0.1410
     94  CG        41.0010   46.4170   46.5670 C.2   254  ASP254      0.3668
     95  OD1       40.4060   47.3880   46.0400 O.co2 254  ASP254     -0.2456
     96  OD2       41.8250   45.7040   45.9610 O.co2 254  ASP254     -0.2456
     97  N         38.8210   50.2780   51.4450 N.3   257  THR257     -0.1218
     98  CA        37.5760   50.4530   50.6990 C.3   257  THR257      0.1862
     99  C         36.4750   49.6190   51.3440 C.2   257  THR257      0.2287
    100  O         35.3430   50.0790   51.5260 O.2   257  THR257     -0.2866
    101  CB        37.7300   49.9810   49.2420 C.3   257  THR257      0.1770
    102  OG1       38.5850   50.8850   48.5360 O.3   257  THR257     -0.2211
    103  CG2       36.3830   49.9190   48.5470 C.3   257  THR257      0.0375
    104  N         28.6640   64.5600   41.1800 N.3   282  LYS282     -0.1231
    105  CA        29.9480   64.3660   40.5250 C.3   282  LYS282      0.1693
    106  C         30.8560   63.5710   41.4690 C.2   282  LYS282      0.2591
    107  O         31.4940   62.5980   41.0550 O.2   282  LYS282     -0.2718
    108  CB        30.5720   65.7350   40.1870 C.3   282  LYS282      0.0285
    109  CG        31.7350   65.7060   39.1890 C.3   282  LYS282      0.0035
    110  CD        33.0740   65.4380   39.8650 C.3   282  LYS282      0.0206
    111  CE        33.8940   66.7190   40.0140 C.3   282  LYS282      0.1093
    112  NZ        33.1980   67.7950   40.7940 N.3   282  LYS282     -0.1314
    113  N         30.8950   63.9850   42.7360 N.am  283  GLU283     -0.1979
    114  CA        31.7160   63.3380   43.7610 C.3   283  GLU283      0.1602
    115  C         31.2700   61.9150   44.0440 C.2   283  GLU283      0.2287
    116  O         32.0920   61.0520   44.3460 O.2   283  GLU283     -0.2864
    117  CB        31.6430   64.1140   45.0750 C.3   283  GLU283      0.0415
    118  CG        32.1840   65.5220   45.0160 C.3   283  GLU283      0.1163
    119  CD        33.6870   65.5530   45.0420 C.2   283  GLU283      0.3649
    120  OE1       34.2660   65.1070   46.0510 O.co2 283  GLU283     -0.2457
    121  OE2       34.2880   66.0170   44.0550 O.co2 283  GLU283     -0.2457
    122  N         32.2880   59.6860   41.0910 N.3   286  TRP286     -0.1241
    123  CA        33.7380   59.5280   41.1970 C.3   286  TRP286      0.1605
    124  C         34.0020   58.4820   42.2820 C.2   286  TRP286      0.2264
    125  O         34.7980   57.5680   42.0920 O.2   286  TRP286     -0.2867
    126  CB        34.3930   60.8580   41.5940 C.3   286  TRP286      0.0550
    127  CG        35.8230   60.7360   42.0700 C.ar  286  TRP286      0.0003
    128  CD1       36.9020   60.2840   41.3530 C.ar  286  TRP286      0.0946
    129  CD2       36.3220   61.0770   43.3690 C.ar  286  TRP286      0.0152
    130  NE1       38.0420   60.3260   42.1290 N.ar  286  TRP286     -0.2442
    131  CE2       37.7150   60.8070   43.3680 C.ar  286  TRP286      0.0810
    132  CE3       35.7290   61.5840   44.5350 C.ar  286  TRP286      0.0012
    133  CZ2       38.5220   61.0310   44.4890 C.ar  286  TRP286      0.0191
    134  CZ3       36.5350   61.8070   45.6540 C.ar  286  TRP286      0.0001
    135  CH2       37.9180   61.5280   45.6200 C.ar  286  TRP286      0.0015
    136  N         33.3220   55.1560   40.9270 N.3   289  SER289     -0.1202
    137  CA        34.3440   54.7290   39.9690 C.3   289  SER289      0.2020
    138  C         35.5250   54.0720   40.6640 C.2   289  SER289      0.2618
    139  O         36.2320   53.2630   40.0630 O.2   289  SER289     -0.2717
    140  CB        34.8450   55.9080   39.1270 C.3   289  SER289      0.2103
    141  OG        35.7290   56.7350   39.8600 O.3   289  SER289     -0.2182
    142  N         35.7490   54.4200   41.9240 N.am  290  ASN290     -0.1974
    143  CA        36.8410   53.8070   42.6610 C.3   290  ASN290      0.1688
    144  C         36.3770   52.5700   43.3960 C.2   290  ASN290      0.2292
    145  O         37.1890   51.8470   43.9600 O.2   290  ASN290     -0.2864
    146  CB        37.4510   54.7750   43.6630 C.3   290  ASN290      0.1181
    147  CG        38.3640   55.7540   43.0090 C.2   290  ASN290      0.2629
    148  OD1       39.2040   55.3740   42.1890 O.2   290  ASN290     -0.2716
    149  ND2       38.2170   57.0300   43.3560 N.am  290  ASN290     -0.0877
    150  N         34.2990   50.4270   41.7980 N.3   292  THR292     -0.1203
    151  CA        34.2370   49.4440   40.7260 C.3   292  THR292      0.1994
    152  C         35.6400   49.1010   40.2200 C.2   292  THR292      0.2618
    153  O         35.8070   48.2970   39.2980 O.2   292  THR292     -0.2717
    154  CB        33.3790   49.9460   39.5540 C.3   292  THR292      0.1784
    155  OG1       33.8930   51.1950   39.0810 O.3   292  THR292     -0.2211
    156  CG2       31.9430   50.1150   39.9990 C.3   292  THR292      0.0376
    157  N         36.6460   49.7200   40.8260 N.am  293  ALA293     -0.1965
    158  CA        38.0300   49.4630   40.4620 C.3   293  ALA293      0.1728
    159  C         38.5960   48.5150   41.5130 C.2   293  ALA293      0.2616
    160  O         39.7840   48.1960   41.5120 O.2   293  ALA293     -0.2715
    161  CB        38.8150   50.7550   40.4410 C.3   293  ALA293      0.0334
    162  N         37.7240   48.0680   42.4120 N.am  294  GLY294     -0.1955
    163  CA        38.1390   47.1550   43.4610 C.3   294  GLY294      0.1869
    164  C         37.9230   45.6990   43.0870 C.2   294  GLY294      0.2309
    165  O         37.8220   45.3610   41.8990 O.2   294  GLY294     -0.2863
    166  N         32.9120   60.7430   34.9620 N.3   325  GLU325     -0.1245
    167  CA        33.1840   59.9100   36.1240 C.3   325  GLU325      0.1567
    168  C         32.3580   58.6470   36.0010 C.2   325  GLU325      0.2260
    169  O         32.7470   57.5850   36.4880 O.2   325  GLU325     -0.2867
    170  CB        32.8230   60.6480   37.4150 C.3   325  GLU325      0.0388
    171  CG        33.6630   61.8890   37.6660 C.3   325  GLU325      0.1160
    172  CD        35.1060   61.5720   38.0330 C.2   325  GLU325      0.3649
    173  OE1       35.6360   60.5280   37.5950 O.co2 325  GLU325     -0.2457
    174  OE2       35.7220   62.3850   38.7530 O.co2 325  GLU325     -0.2457
    175  N         34.1190   56.3800   33.6350 N.3   328  TRP328     -0.1241
    176  CA        35.2220   55.7440   34.3560 C.3   328  TRP328      0.1605
    177  C         34.7020   54.5930   35.2090 C.2   328  TRP328      0.2264
    178  O         35.2550   53.4940   35.1860 O.2   328  TRP328     -0.2867
    179  CB        35.9310   56.7440   35.2670 C.3   328  TRP328      0.0550
    180  CG        37.0730   57.4600   34.6240 C.ar  328  TRP328      0.0003
    181  CD1       37.1660   58.8040   34.3750 C.ar  328  TRP328      0.0946
    182  CD2       38.2960   56.8770   34.1560 C.ar  328  TRP328      0.0152
    183  NE1       38.3750   59.0930   33.7810 N.ar  328  TRP328     -0.2442
    184  CE2       39.0880   57.9320   33.6350 C.ar  328  TRP328      0.0810
    185  CE3       38.8000   55.5710   34.1290 C.ar  328  TRP328      0.0012
    186  CZ2       40.3630   57.7160   33.0890 C.ar  328  TRP328      0.0191
    187  CZ3       40.0700   55.3550   33.5830 C.ar  328  TRP328      0.0001
    188  CH2       40.8350   56.4260   33.0720 C.ar  328  TRP328      0.0015
    189  N         35.9170   50.8510   34.6460 N.3   332  ASN332     -0.1240
    190  CA        36.6640   50.1780   35.7110 C.3   332  ASN332      0.1653
    191  C         35.9640   48.8690   36.0400 C.2   332  ASN332      0.2266
    192  O         36.6020   47.8480   36.2990 O.2   332  ASN332     -0.2867
    193  CB        36.7230   51.0310   36.9790 C.3   332  ASN332      0.1155
    194  CG        37.8170   52.0870   36.9320 C.2   332  ASN332      0.2627
    195  OD1       38.8190   51.9400   36.2240 O.2   332  ASN332     -0.2716
    196  ND2       37.6400   53.1500   37.7100 N.am  332  ASN332     -0.0877
    197  N         36.4460   46.3160   33.5960 N.3   335  SER335     -0.1202
    198  CA        37.8630   45.9990   33.5810 C.3   335  SER335      0.2020
    199  C         38.2160   44.8320   34.4890 C.2   335  SER335      0.2619
    200  O         39.0010   43.9670   34.1100 O.2   335  SER335     -0.2717
    201  CB        38.6780   47.2110   33.9970 C.3   335  SER335      0.2103
    202  OG        40.0060   46.8110   34.2620 O.3   335  SER335     -0.2182
    203  N         37.6450   44.8000   35.6880 N.am  336  GLY336     -0.1956
    204  CA        37.9510   43.7140   36.6010 C.3   336  GLY336      0.1869
    205  C         36.7680   42.8300   36.9390 C.2   336  GLY336      0.2309
    206  O         36.8910   41.8960   37.7360 O.2   336  GLY336     -0.2863
@<TRIPOS>BOND
     1   188   186   ar
     2   188   187   ar
     3   186   184   ar
     4   198   197    1
     5   198   201    1
     6   198   199    1
     7   187   185   ar
     8   175   176    1
     9   184   183   ar
    10   184   182   ar
    11   183   181   ar
    12   201   202    1
    13   200   199    2
    14   185   182   ar
    15   182   180   ar
    16   176   177    1
    17   176   179    1
    18   181   180   ar
    19   199   203   am
    20   180   179    1
    21   189   190    1
    22   166   167    1
    23   178   177    2
    24   203   204    1
    25   190   191    1
    26   190   193    1
    27   168   167    1
    28   168   169    2
    29   191   192    2
    30   167   170    1
    31   195   194    2
    32   204   205    1
    33   194   193    1
    34   194   196   am
    35   205   206    2
    36   170   171    1
    37   173   172   ar
    38   171   172    1
    39   172   174   ar
    40   155   154    1
    41   140   141    1
    42   140   137    1
    43   109   110    1
    44   109   108    1
    45   153   152    2
    46   154   156    1
    47   154   151    1
    48   110   111    1
    49   137   138    1
    50   137   136    1
    51   111   112    1
    52   139   138    2
    53   108   105    1
    54   152   151    1
    55   152   157   am
    56   161   158    1
    57   158   157    1
    58   158   159    1
    59   105   104    1
    60   105   106    1
    61   138   142   am
    62   151   150    1
    63   107   106    2
    64   122   123    1
    65   123   126    1
    66   123   124    1
    67   128   127   ar
    68   128   130   ar
    69   106   113   am
    70   160   159    2
    71   159   162   am
    72   126   127    1
    73   165   164    2
    74   142   143    1
    75   127   129   ar
    76   125   124    2
    77   130   131   ar
    78   148   147    2
    79   162   163    1
    80   143   144    1
    81   143   146    1
    82   113   114    1
    83   147   149   am
    84   147   146    1
    85   164   163    1
    86   131   129   ar
    87   131   133   ar
    88   129   132   ar
    89   144   145    2
    90   114   115    1
    91   114   117    1
    92   115   116    2
    93   121   119   ar
    94   133   135   ar
    95   132   134   ar
    96   118   119    1
    97   118   117    1
    98   119   120   ar
    99   135   134   ar
   100    61    60    1
   101    62    60    1
   102    84    82    1
   103    96    94   ar
   104    95    94   ar
   105    82    79    1
   106    82    83    1
   107    81    80    2
   108    60    59    2
   109    74    73    2
   110    94    93    1
   111    79    80    1
   112    79    78    1
   113     9     8    1
   114    80    85   am
   115    77    75    1
   116    88    87    2
   117    73    78   am
   118    73    72    1
   119    59    58    1
   120     8     7    1
   121    93    90    1
   122    24    22   ar
   123    75    72    1
   124    75    76    1
   125    85    86    1
   126   102   101    1
   127    69    68    2
   128   103   101    1
   129    87    86    1
   130    23    22   ar
   131    58    57    1
   132     7     6    1
   133    72    71    1
   134    90    89    1
   135    90    91    1
   136    22    21    1
   137    43    41   am
   138    42    41    2
   139   101    98    1
   140    63    64    1
   141    66    65    2
   142    64    65    1
   143    64    67    1
   144    28    27    2
   145     5     6    1
   146     5     2    1
   147    68    67    1
   148    68    70   am
   149    41    40    1
   150    26    27    1
   151    26    25    1
   152    27    29   am
   153    25    19   am
   154    53    56    1
   155    53    52    1
   156    53    54    1
   157    57    56    1
   158    29    30    1
   159    29    35    1
   160    34    35    1
   161    34    33    1
   162    91    92    2
   163    55    54    2
   164    21    18    1
   165    30    33    1
   166    30    31    1
   167    19    18    1
   168    19    20    2
   169     3     4    2
   170     3     2    1
   171    18    17    1
   172    98    99    1
   173    98    97    1
   174     2     1    1
   175    36    31   am
   176    36    37    1
   177    51    49    1
   178    40    37    1
   179    31    32    2
   180    99   100    2
   181    13    12    2
   182    37    38    1
   183    17    12   am
   184    12    11    1
   185    49    48    1
   186    38    39    2
   187    15    14    1
   188    48    50    1
   189    48    45    1
   190    11    14    1
   191    11    10    1
   192    14    16    1
   193    44    45    1
   194    45    46    1
   195    46    47    2
