@<TRIPOS>MOLECULE
tmp/1ejnA00.pdb
 164 163 0 0 0
SMALL
GASTEIGER

@<TRIPOS>ATOM
      1  N         15.0000    8.9440   22.8020 N.3    29  TYR29      -0.1227
      2  CA        15.6810    7.9300   23.5990 C.3    29  TYR29       0.1736
      3  C         16.5570    8.5820   24.6560 C.2    29  TYR29       0.2595
      4  O         17.2340    9.5730   24.3870 O.2    29  TYR29      -0.2718
      5  CB        16.5430    7.0280   22.7130 C.3    29  TYR29       0.0548
      6  CG        17.1370    5.8480   23.4510 C.ar   29  TYR29      -0.0200
      7  CD1       16.3530    4.7380   23.7670 C.ar   29  TYR29      -0.0009
      8  CD2       18.4810    5.8330   23.8260 C.ar   29  TYR29      -0.0009
      9  CE1       16.8880    3.6380   24.4340 C.ar   29  TYR29       0.0417
     10  CE2       19.0320    4.7300   24.4990 C.ar   29  TYR29       0.0417
     11  CZ        18.2240    3.6360   24.7930 C.ar   29  TYR29       0.1957
     12  OH        18.7430    2.5230   25.4140 O.3    29  TYR29      -0.2866
     13  N         16.5670    7.9960   25.8470 N.am   30  VAL30      -0.1966
     14  CA        17.3600    8.5290   26.9420 C.3    30  VAL30       0.1727
     15  C         18.4870    7.5790   27.3220 C.2    30  VAL30       0.2616
     16  O         19.6580    7.8540   27.0490 O.2    30  VAL30      -0.2715
     17  CB        16.4760    8.8010   28.1980 C.3    30  VAL30       0.0290
     18  CG1       17.3300    9.3140   29.3590 C.3    30  VAL30       0.0023
     19  CG2       15.3860    9.8130   27.8640 C.3    30  VAL30       0.0023
     20  N         18.1170    6.4340   27.8920 N.am   31  CYS31      -0.1968
     21  CA        19.0990    5.4630   28.3550 C.3    31  CYS31       0.1712
     22  C         18.6360    4.0220   28.3140 C.2    31  CYS31       0.2296
     23  O         17.4640    3.7270   28.0840 O.2    31  CYS31      -0.2864
     24  CB        19.4690    5.7650   29.8050 C.3    31  CYS31       0.0983
     25  SG        20.5940    7.1580   30.0980 S.3    31  CYS31      -0.0798
     26  N         22.3980    9.1910   36.4410 N.3    46  HIS46      -0.1226
     27  CA        22.8830   10.1950   35.4910 C.3    46  HIS46       0.1752
     28  C         21.8230   10.5110   34.4280 C.2    46  HIS46       0.2596
     29  O         21.7030   11.6460   33.9650 O.2    46  HIS46      -0.2718
     30  CB        24.1460    9.6590   34.7980 C.3    46  HIS46       0.0759
     31  CG        24.8120   10.6370   33.8770 C.ar   46  HIS46       0.0818
     32  ND1       25.7820   10.2580   32.9750 N.ar   46  HIS46      -0.2268
     33  CD2       24.6770   11.9800   33.7430 C.ar   46  HIS46       0.1154
     34  CE1       26.2190   11.3230   32.3260 C.ar   46  HIS46       0.1986
     35  NE2       25.5650   12.3810   32.7730 N.ar   46  HIS46      -0.2212
     36  N         21.0490    9.4960   34.0640 N.am   47  CYS47      -0.1970
     37  CA        20.0150    9.6180   33.0450 C.3    47  CYS47       0.1712
     38  C         18.8050   10.4700   33.4120 C.2    47  CYS47       0.2296
     39  O         18.1760   11.0600   32.5340 O.2    47  CYS47      -0.2864
     40  CB        19.5110    8.2220   32.6820 C.3    47  CYS47       0.0983
     41  SG        20.8180    7.0960   32.1100 S.3    47  CYS47      -0.0798
     42  N         21.8000    8.1030   17.0470 N.3   150  TYR150     -0.1241
     43  CA        21.9680    6.7560   17.5860 C.3   150  TYR150      0.1605
     44  C         21.5550    5.7370   16.5250 C.2   150  TYR150      0.2264
     45  O         20.7230    6.0320   15.6630 O.2   150  TYR150     -0.2867
     46  CB        21.0620    6.5530   18.8020 C.3   150  TYR150      0.0534
     47  CG        21.3800    7.4090   20.0060 C.ar  150  TYR150     -0.0201
     48  CD1       22.6900    7.8030   20.2920 C.ar  150  TYR150     -0.0009
     49  CD2       20.3720    7.7770   20.8930 C.ar  150  TYR150     -0.0009
     50  CE1       22.9860    8.5400   21.4390 C.ar  150  TYR150      0.0417
     51  CE2       20.6590    8.5120   22.0450 C.ar  150  TYR150      0.0417
     52  CZ        21.9660    8.8880   22.3100 C.ar  150  TYR150      0.1957
     53  OH        22.2430    9.6070   23.4500 O.3   150  TYR150     -0.2866
     54  N         33.6980   -0.6530   22.6880 N.3   192  ASP192     -0.1225
     55  CA        33.4480   -0.0330   23.9900 C.3   192  ASP192      0.1805
     56  C         32.0390    0.5600   24.0070 C.2   192  ASP192      0.2598
     57  O         31.3560    0.5900   22.9810 O.2   192  ASP192     -0.2718
     58  CB        34.4670    1.1110   24.1410 C.3   192  ASP192      0.1424
     59  CG        34.6280    1.6170   25.5660 C.2   192  ASP192      0.3668
     60  OD1       34.0180    1.0800   26.5180 O.co2 192  ASP192     -0.2456
     61  OD2       35.3990    2.5850   25.7260 O.co2 192  ASP192     -0.2456
     62  N         31.6000    1.0090   25.1800 N.am  193  SER193     -0.1938
     63  CA        30.3010    1.6660   25.3070 C.3   193  SER193      0.2055
     64  C         30.5590    3.1390   24.9720 C.2   193  SER193      0.2643
     65  O         31.7110    3.5810   24.9730 O.2   193  SER193     -0.2714
     66  CB        29.7640    1.5390   26.7380 C.3   193  SER193      0.2130
     67  OG        30.7220    1.9790   27.6900 O.3   193  SER193     -0.2179
     68  N         29.5030    3.8950   24.6810 N.am  194  CYS194     -0.1953
     69  CA        29.6560    5.3080   24.3500 C.3   194  CYS194      0.1843
     70  C         28.3950    6.0690   24.7580 C.2   194  CYS194      0.2625
     71  O         27.4890    5.4870   25.3560 O.2   194  CYS194     -0.2714
     72  CB        29.9330    5.4680   22.8470 C.3   194  CYS194      0.0997
     73  SG        30.7370    7.0370   22.3640 S.3   194  CYS194     -0.0797
     74  N         28.3420    7.3660   24.4590 N.am  195  GLN195     -0.1963
     75  CA        27.1720    8.1730   24.8190 C.3   195  GLN195      0.1733
     76  C         25.8880    7.5170   24.3260 C.2   195  GLN195      0.2616
     77  O         25.7920    7.1100   23.1740 O.2   195  GLN195     -0.2715
     78  CB        27.2750    9.5950   24.2570 C.3   195  GLN195      0.0408
     79  CG        27.9700   10.5970   25.1710 C.3   195  GLN195      0.0908
     80  CD        29.4490   10.3160   25.3410 C.2   195  GLN195      0.2608
     81  OE1       30.1220    9.8910   24.4020 O.2   195  GLN195     -0.2717
     82  NE2       29.9650   10.5630   26.5380 N.am  195  GLN195     -0.0878
     83  N         24.9030    7.4290   25.2120 N.am  196  GLY196     -0.1955
     84  CA        23.6470    6.8060   24.8560 C.3   196  GLY196      0.1869
     85  C         23.5440    5.3940   25.4100 C.2   196  GLY196      0.2309
     86  O         22.4710    4.7940   25.3660 O.2   196  GLY196     -0.2863
     87  N         24.5740    4.6530   28.6280 N.3   198  SER198     -0.1217
     88  CA        24.4100    4.7490   30.0770 C.3   198  SER198      0.1889
     89  C         23.1560    4.0140   30.5560 C.2   198  SER198      0.2288
     90  O         22.1320    3.9770   29.8580 O.2   198  SER198     -0.2866
     91  CB        24.3500    6.2200   30.5170 C.3   198  SER198      0.2089
     92  OG        24.1490    6.3150   31.9220 O.3   198  SER198     -0.2183
     93  N         26.4340    0.4900   32.8170 N.3   216  VAL216     -0.1231
     94  CA        27.2290    1.4410   32.0320 C.3   216  VAL216      0.1692
     95  C         27.1330    2.8130   32.6950 C.2   216  VAL216      0.2593
     96  O         26.0380    3.3380   32.9220 O.2   216  VAL216     -0.2718
     97  CB        26.7450    1.5300   30.5640 C.3   216  VAL216      0.0266
     98  CG1       27.6540    2.4650   29.7660 C.3   216  VAL216      0.0020
     99  CG2       26.7420    0.1490   29.9160 C.3   216  VAL216      0.0020
    100  N         28.2860    3.3990   33.0030 N.am  217  SER217     -0.1938
    101  CA        28.3000    4.6810   33.6780 C.3   217  SER217      0.2055
    102  C         29.1310    5.7850   33.0380 C.2   217  SER217      0.2643
    103  O         28.5770    6.7930   32.6030 O.2   217  SER217     -0.2714
    104  CB        28.7100    4.4950   35.1460 C.3   217  SER217      0.2130
    105  OG        28.7200    5.7350   35.8360 O.3   217  SER217     -0.2179
    106  N         30.4460    5.5960   32.9470 N.am  218  TRP218     -0.1959
    107  CA        31.2870    6.6500   32.3990 C.3   218  TRP218      0.1771
    108  C         32.6140    6.1990   31.8050 C.2   218  TRP218      0.2620
    109  O         32.9850    5.0300   31.8840 O.2   218  TRP218     -0.2715
    110  CB        31.5430    7.7130   33.4800 C.3   218  TRP218      0.0590
    111  CG        32.3090    7.2060   34.6740 C.ar  218  TRP218      0.0006
    112  CD1       31.7940    6.5800   35.7770 C.ar  218  TRP218      0.0946
    113  CD2       33.7230    7.3080   34.8960 C.ar  218  TRP218      0.0152
    114  NE1       32.7990    6.2910   36.6710 N.ar  218  TRP218     -0.2442
    115  CE2       33.9920    6.7250   36.1540 C.ar  218  TRP218      0.0810
    116  CE3       34.7880    7.8360   34.1530 C.ar  218  TRP218      0.0012
    117  CZ2       35.2860    6.6540   36.6870 C.ar  218  TRP218      0.0191
    118  CZ3       36.0740    7.7650   34.6850 C.ar  218  TRP218      0.0001
    119  CH2       36.3100    7.1790   35.9380 C.ar  218  TRP218      0.0015
    120  N         33.3250    7.1530   31.2100 N.am  219  GLY219     -0.1940
    121  CA        34.6110    6.8620   30.6090 C.3   219  GLY219      0.2014
    122  C         35.0960    8.0230   29.7690 C.2   219  GLY219      0.2639
    123  O         34.2930    8.8160   29.2720 O.2   219  GLY219     -0.2714
    124  N         36.4150    8.1470   29.6460 N.am  220  ARG220     -0.1963
    125  CA        37.0250    9.2070   28.8510 C.3   220  ARG220      0.1729
    126  C         36.8980    8.8290   27.3760 C.2   220  ARG220      0.2617
    127  O         37.4910    7.8470   26.9310 O.2   220  ARG220     -0.2715
    128  CB        38.5030    9.3580   29.2310 C.3   220  ARG220      0.0348
    129  CG        39.3090   10.2260   28.2750 C.3   220  ARG220      0.0492
    130  CD        38.9590   11.7000   28.3990 C.3   220  ARG220      0.2205
    131  NE        38.9140   12.3700   27.0980 N.pl3 220  ARG220     -0.0865
    132  CZ        39.9160   12.4080   26.2210 C.cat 220  ARG220      0.5346
    133  NH1       41.0730   11.8160   26.4860 N.pl3 220  ARG220      0.1354
    134  NH2       39.7550   13.0340   25.0630 N.pl3 220  ARG220      0.1354
    135  N         36.1120    9.6010   26.6280 N.am  221  GLY221     -0.1940
    136  CA        35.9170    9.3150   25.2180 C.3   221  GLY221      0.2014
    137  C         35.2250    7.9820   25.0110 C.2   221  GLY221      0.2639
    138  O         34.4650    7.5360   25.8750 O.2   221  GLY221     -0.2714
    139  N         35.5020    7.3370   23.8800 N.am  222  CYS222     -0.1967
    140  CA        34.9160    6.0340   23.5510 C.3   222  CYS222      0.1712
    141  C         35.9100    5.2190   22.7340 C.2   222  CYS222      0.2296
    142  O         36.3610    5.6590   21.6790 O.2   222  CYS222     -0.2864
    143  CB        33.6250    6.2050   22.7420 C.3   222  CYS222      0.0983
    144  SG        32.3430    7.1650   23.6000 S.3   222  CYS222     -0.0798
    145  N         41.8090    3.9090   28.2150 N.3   227  LYS227     -0.1245
    146  CA        40.6530    4.5830   28.7990 C.3   227  LYS227      0.1561
    147  C         39.4490    3.6380   28.7400 C.2   227  LYS227      0.2260
    148  O         38.5650    3.7740   27.8890 O.2   227  LYS227     -0.2867
    149  CB        40.3610    5.8770   28.0290 C.3   227  LYS227      0.0271
    150  CG        41.5460    6.8330   27.9460 C.3   227  LYS227      0.0035
    151  CD        41.9800    7.2990   29.3290 C.3   227  LYS227      0.0206
    152  CE        43.2650    8.1020   29.2650 C.3   227  LYS227      0.1093
    153  NZ        43.7020    8.5150   30.6250 N.3   227  LYS227     -0.1314
    154  N         35.8950    1.5910   29.7740 N.3   229  GLY229     -0.1210
    155  CA        34.5790    2.0510   30.1590 C.3   229  GLY229      0.1956
    156  C         34.4850    1.7250   31.6370 C.2   229  GLY229      0.2611
    157  O         35.0630    0.7310   32.0830 O.2   229  GLY229     -0.2717
    158  N         33.8410    2.5880   32.4140 N.am  230  VAL230     -0.1979
    159  CA        33.6940    2.3520   33.8460 C.3   230  VAL230      0.1595
    160  C         32.2260    2.0570   34.1410 C.2   230  VAL230      0.2287
    161  O         31.3250    2.7230   33.6150 O.2   230  VAL230     -0.2864
    162  CB        34.1990    3.5480   34.6770 C.3   230  VAL230      0.0276
    163  CG1       34.2120    3.1900   36.1650 C.3   230  VAL230      0.0022
    164  CG2       35.5920    3.9550   34.2030 C.3   230  VAL230      0.0022
@<TRIPOS>BOND
     1    45    44    2
     2    44    43    1
     3    42    43    1
     4    43    46    1
     5    46    47    1
     6    47    48   ar
     7    47    49   ar
     8    48    50   ar
     9    49    51   ar
    10    50    52   ar
    11   142   141    2
    12    51    52   ar
    13    52    53    1
    14    73    72    1
    15    73   144    1
    16    54    55    1
    17     5     6    1
    18     5     2    1
    19   141   140    1
    20   143   140    1
    21   143   144    1
    22     1     2    1
    23    72    69    1
    24    57    56    2
    25    77    76    2
    26     6     7   ar
    27     6     8   ar
    28   140   139    1
    29     2     3    1
    30     7     9   ar
    31     8    10   ar
    32   139   137   am
    33    55    56    1
    34    55    58    1
    35    56    62   am
    36    58    59    1
    37    78    75    1
    38    78    79    1
    39    76    75    1
    40    76    83   am
    41    69    68    1
    42    69    70    1
    43     4     3    2
    44    81    80    2
    45     9    11   ar
    46    74    70   am
    47    74    75    1
    48    10    11   ar
    49     3    13   am
    50    68    64   am
    51    70    71    2
    52    11    12    1
    53    84    83    1
    54    84    85    1
    55    64    65    2
    56    64    63    1
    57   137   136    1
    58   137   138    2
    59   134   132    1
    60    79    80    1
    61    62    63    1
    62   136   135    1
    63    63    66    1
    64    80    82   am
    65    86    85    2
    66    59    61   ar
    67    59    60   ar
    68    13    14    1
    69   132   133    1
    70   132   131    2
    71   135   126   am
    72    66    67    1
    73   127   126    2
    74    14    15    1
    75    14    17    1
    76    16    15    2
    77   131   130    1
    78    15    20   am
    79   126   125    1
    80    19    17    1
    81   148   147    2
    82    20    21    1
    83   150   149    1
    84   150   151    1
    85   149   146    1
    86    23    22    2
    87    17    18    1
    88   145   146    1
    89   129   130    1
    90   129   128    1
    91    22    21    1
    92    21    24    1
    93    87    88    1
    94   147   146    1
    95   125   128    1
    96   125   124    1
    97   152   151    1
    98   152   153    1
    99   123   122    2
   100   124   122   am
   101    98    97    1
   102   122   121    1
   103   154   155    1
   104    24    25    1
   105    90    89    2
   106    99    97    1
   107    88    91    1
   108    88    89    1
   109    25    41    1
   110   155   156    1
   111    91    92    1
   112    97    94    1
   113   121   120    1
   114   120   108   am
   115   156   157    2
   116   156   158   am
   117   108   109    2
   118   108   107    1
   119    94    95    1
   120    94    93    1
   121    41    40    1
   122    34    35   ar
   123    34    32   ar
   124   107   106    1
   125   107   110    1
   126   158   159    1
   127    39    38    2
   128   103   102    2
   129    40    37    1
   130    95    96    2
   131    95   100   am
   132    35    33   ar
   133   106   102   am
   134    32    31   ar
   135   100   101    1
   136   102   101    1
   137    37    38    1
   138    37    36    1
   139   110   111    1
   140   161   160    2
   141   101   104    1
   142    33    31   ar
   143   159   160    1
   144   159   162    1
   145    31    30    1
   146    29    28    2
   147    36    28   am
   148   116   118   ar
   149   116   113   ar
   150   164   162    1
   151    28    27    1
   152   111   113   ar
   153   111   112   ar
   154   162   163    1
   155   118   119   ar
   156    30    27    1
   157   113   115   ar
   158   104   105    1
   159    27    26    1
   160   112   114   ar
   161   119   117   ar
   162   115   114   ar
   163   115   117   ar
