@<TRIPOS>MOLECULE
tmp/1ejoB00.pdb
 124 122 0 0 0
SMALL
GASTEIGER

@<TRIPOS>ATOM
      1  N        -11.0120    2.0660  -10.9550 N.3    32  THR32      -0.1218
      2  CA       -10.2540    0.8310  -10.8000 C.3    32  THR32       0.1862
      3  C         -9.9440    0.7720   -9.3030 C.2    32  THR32       0.2287
      4  O         -9.5970    1.7890   -8.7020 O.2    32  THR32      -0.2866
      5  CB        -8.9430    0.8880  -11.6240 C.3    32  THR32       0.1770
      6  OG1       -9.2280    0.6160  -13.0010 O.3    32  THR32      -0.2211
      7  CG2       -7.9300   -0.1230  -11.1170 C.3    32  THR32       0.0375
      8  N          0.9760   -5.0280   -1.7200 N.3    46  TRP46      -0.1241
      9  CA        -0.1380   -4.9310   -2.6570 C.3    46  TRP46       0.1605
     10  C         -0.7580   -6.3290   -2.7580 C.2    46  TRP46       0.2264
     11  O         -0.0520   -7.3150   -2.9800 O.2    46  TRP46      -0.2867
     12  CB         0.3540   -4.4620   -4.0290 C.3    46  TRP46       0.0550
     13  CG        -0.6830   -4.5610   -5.1050 C.ar   46  TRP46       0.0003
     14  CD1       -1.8600   -3.8720   -5.1810 C.ar   46  TRP46       0.0946
     15  CD2       -0.6430   -5.4190   -6.2520 C.ar   46  TRP46       0.0152
     16  NE1       -2.5570   -4.2520   -6.3030 N.ar   46  TRP46      -0.2442
     17  CE2       -1.8350   -5.1980   -6.9770 C.ar   46  TRP46       0.0810
     18  CE3        0.2820   -6.3520   -6.7350 C.ar   46  TRP46       0.0012
     19  CZ2       -2.1230   -5.8800   -8.1660 C.ar   46  TRP46       0.0191
     20  CZ3       -0.0070   -7.0300   -7.9140 C.ar   46  TRP46       0.0001
     21  CH2       -1.2000   -6.7890   -8.6150 C.ar   46  TRP46       0.0015
     22  N         -5.8650   -5.9740   -7.6220 N.3    49  THR49      -0.1218
     23  CA        -6.4090   -4.8410   -8.3640 C.3    49  THR49       0.1862
     24  C         -7.4700   -5.3490   -9.3370 C.2    49  THR49       0.2287
     25  O         -7.3130   -6.4130   -9.9370 O.2    49  THR49      -0.2866
     26  CB        -5.3090   -4.1000   -9.1690 C.3    49  THR49       0.1770
     27  OG1       -4.3950   -3.4630   -8.2690 O.3    49  THR49      -0.2211
     28  CG2       -5.9220   -3.0380  -10.0740 C.3    49  THR49       0.0375
     29  N        -10.3230   -3.9030  -12.4540 N.3    51  SER51      -0.1202
     30  CA       -10.7760   -2.8250  -13.3240 C.3    51  SER51       0.2020
     31  C        -12.1840   -2.3600  -12.9680 C.2    51  SER51       0.2619
     32  O        -12.9100   -3.0460  -12.2440 O.2    51  SER51      -0.2717
     33  CB       -10.7140   -3.2690  -14.7890 C.3    51  SER51       0.2103
     34  OG       -11.5240   -4.4080  -15.0280 O.3    51  SER51      -0.2182
     35  N        -12.5640   -1.1950  -13.4860 N.am   52  SER52      -0.1951
     36  CA       -13.8800   -0.6150  -13.2300 C.3    52  SER52       0.1924
     37  C        -15.0130   -1.5990  -13.5170 C.2    52  SER52       0.2314
     38  O        -15.9460   -1.7300  -12.7240 O.2    52  SER52      -0.2863
     39  CB       -14.0640    0.6550  -14.0620 C.3    52  SER52       0.2116
     40  OG       -13.8300    0.4020  -15.4360 O.3    52  SER52      -0.2180
     41  N        -10.6400   -7.2100  -15.7600 N.3    56  TYR56      -0.1241
     42  CA        -9.2130   -7.3750  -15.5120 C.3    56  TYR56       0.1605
     43  C         -8.8770   -7.4270  -14.0250 C.2    56  TYR56       0.2264
     44  O         -9.2250   -6.5210  -13.2670 O.2    56  TYR56      -0.2867
     45  CB        -8.4340   -6.2390  -16.1840 C.3    56  TYR56       0.0534
     46  CG        -8.8220   -6.0280  -17.6310 C.ar   56  TYR56      -0.0201
     47  CD1       -9.8750   -5.1780  -17.9740 C.ar   56  TYR56      -0.0009
     48  CD2       -8.1670   -6.7100  -18.6540 C.ar   56  TYR56      -0.0009
     49  CE1      -10.2740   -5.0220  -19.3000 C.ar   56  TYR56       0.0417
     50  CE2       -8.5540   -6.5590  -19.9820 C.ar   56  TYR56       0.0417
     51  CZ        -9.6070   -5.7190  -20.2980 C.ar   56  TYR56       0.1957
     52  OH        -9.9990   -5.6030  -21.6120 O.3    56  TYR56      -0.2866
     53  N         -5.6290   -8.4370  -11.1710 N.3    58  TYR58      -0.1241
     54  CA        -4.1950   -8.6410  -10.9970 C.3    58  TYR58       0.1605
     55  C         -3.9060   -9.0650   -9.5620 C.2    58  TYR58       0.2264
     56  O         -4.4900   -8.5270   -8.6200 O.2    58  TYR58      -0.2867
     57  CB        -3.4320   -7.3480  -11.3050 C.3    58  TYR58       0.0534
     58  CG        -3.8050   -6.6890  -12.6160 C.ar   58  TYR58      -0.0201
     59  CD1       -4.9120   -5.8440  -12.7020 C.ar   58  TYR58      -0.0009
     60  CD2       -3.0520   -6.9050  -13.7690 C.ar   58  TYR58      -0.0009
     61  CE1       -5.2600   -5.2300  -13.8990 C.ar   58  TYR58       0.0417
     62  CE2       -3.3910   -6.2950  -14.9750 C.ar   58  TYR58       0.0417
     63  CZ        -4.4950   -5.4590  -15.0320 C.ar   58  TYR58       0.1957
     64  OH        -4.8310   -4.8510  -16.2200 O.3    58  TYR58      -0.2866
     65  N         -7.8030    2.7060   -6.7730 N.3    98  ARG98      -0.1231
     66  CA        -6.6100    2.6850   -7.6170 C.3    98  ARG98       0.1694
     67  C         -6.4260    3.8130   -8.6400 C.2    98  ARG98       0.2592
     68  O         -5.3900    4.4860   -8.6280 O.2    98  ARG98      -0.2718
     69  CB        -6.4790    1.3180   -8.3040 C.3    98  ARG98       0.0321
     70  CG        -5.1930    1.1450   -9.0950 C.3    98  ARG98       0.0489
     71  CD        -3.9780    1.3070   -8.2040 C.3    98  ARG98       0.2205
     72  NE        -2.7230    1.0890   -8.9040 N.pl3  98  ARG98      -0.0865
     73  CZ        -1.9180    2.0420   -9.3450 C.cat  98  ARG98       0.5346
     74  NH1       -2.2200    3.3290   -9.1120 N.pl3  98  ARG98       0.1354
     75  NH2       -0.9210    1.7340  -10.1510 N.pl3  98  ARG98       0.1354
     76  N         -7.4080    4.0190   -9.5190 N.am   99  ALA99      -0.1966
     77  CA        -7.3030    5.0590  -10.5490 C.3    99  ALA99       0.1728
     78  C         -8.5240    5.1900  -11.4580 C.2    99  ALA99       0.2616
     79  O         -9.4960    4.4460  -11.3340 O.2    99  ALA99      -0.2715
     80  CB        -6.0550    4.8220  -11.4120 C.3    99  ALA99       0.0334
     81  N         -8.4520    6.1670  -12.3600 N.am  100  PHE100     -0.1960
     82  CA        -9.4970    6.4380  -13.3390 C.3   100  PHE100      0.1771
     83  C         -8.8420    6.5280  -14.7200 C.2   100  PHE100      0.2620
     84  O         -8.9730    5.6210  -15.5400 O.2   100  PHE100     -0.2715
     85  CB       -10.2130    7.7600  -13.0230 C.3   100  PHE100      0.0574
     86  CG       -11.2570    8.1400  -14.0390 C.ar  100  PHE100     -0.0200
     87  CD1      -12.4940    7.5080  -14.0500 C.ar  100  PHE100     -0.0042
     88  CD2      -10.9950    9.1140  -15.0000 C.ar  100  PHE100     -0.0042
     89  CE1      -13.4540    7.8320  -15.0060 C.ar  100  PHE100     -0.0003
     90  CE2      -11.9490    9.4460  -15.9610 C.ar  100  PHE100     -0.0003
     91  CZ       -13.1810    8.8040  -15.9630 C.ar  100  PHE100     -0.0000
     92  N         -8.0930    7.6060  -14.9370 N.am  101  ASP101     -0.1957
     93  CA        -7.4120    7.8670  -16.2050 C.3   101  ASP101      0.1840
     94  C         -5.9000    7.6940  -16.1270 C.2   101  ASP101      0.2623
     95  O         -5.2800    7.1460  -17.0390 O.2   101  ASP101     -0.2715
     96  CB        -7.6850    9.3090  -16.6540 C.3   101  ASP101      0.1450
     97  CG        -8.7020    9.4050  -17.7760 C.2   101  ASP101      0.3671
     98  OD1       -9.0610    8.3650  -18.3690 O.co2 101  ASP101     -0.2456
     99  OD2       -9.1360   10.5390  -18.0740 O.co2 101  ASP101     -0.2456
    100  N         -5.3220    8.1560  -15.0240 N.am  102  SER102     -0.1936
    101  CA        -3.8790    8.1230  -14.8290 C.3   102  SER102      0.2055
    102  C         -3.4240    7.3670  -13.5910 C.2   102  SER102      0.2643
    103  O         -4.1960    7.1620  -12.6550 O.2   102  SER102     -0.2714
    104  CB        -3.3570    9.5630  -14.7700 C.3   102  SER102      0.2130
    105  OG        -1.9850    9.6230  -14.4300 O.3   102  SER102     -0.2179
    106  N         -2.1640    6.9370  -13.6100 N.am  103  ASP103     -0.1971
    107  CA        -1.5800    6.2330  -12.4760 C.3   103  ASP103      0.1709
    108  C         -1.0760    7.3080  -11.5180 C.2   103  ASP103      0.2293
    109  O          0.0110    7.8620  -11.6970 O.2   103  ASP103     -0.2864
    110  CB        -0.4190    5.3360  -12.9230 C.3   103  ASP103      0.1436
    111  CG         0.0380    4.3720  -11.8310 C.2   103  ASP103      0.3671
    112  OD1        0.1160    4.7650  -10.6460 O.co2 103  ASP103     -0.2456
    113  OD2        0.3280    3.2060  -12.1650 O.co2 103  ASP103     -0.2456
    114  N         -1.6870    5.3270   -5.0560 N.3   106  PHE106     -0.1241
    115  CA        -2.7990    5.0310   -4.1630 C.3   106  PHE106      0.1605
    116  C         -3.2010    6.3560   -3.5120 C.2   106  PHE106      0.2264
    117  O         -2.6170    6.7700   -2.5110 O.2   106  PHE106     -0.2867
    118  CB        -2.3740    4.0030   -3.1040 C.3   106  PHE106      0.0534
    119  CG        -1.9850    2.6590   -3.6730 C.ar  106  PHE106     -0.0203
    120  CD1       -0.7450    2.0970   -3.3830 C.ar  106  PHE106     -0.0042
    121  CD2       -2.8600    1.9540   -4.4940 C.ar  106  PHE106     -0.0042
    122  CE1       -0.3830    0.8580   -3.9040 C.ar  106  PHE106     -0.0003
    123  CE2       -2.5050    0.7120   -5.0190 C.ar  106  PHE106     -0.0003
    124  CZ        -1.2640    0.1640   -4.7220 C.ar  106  PHE106     -0.0000
@<TRIPOS>BOND
     1    52    51    1
     2    51    50   ar
     3    51    49   ar
     4    50    48   ar
     5    49    47   ar
     6    48    46   ar
     7    98    97   ar
     8    99    97   ar
     9    47    46   ar
    10    97    96    1
    11    46    45    1
    12    95    94    2
    13    96    93    1
    14    64    63    1
    15    93    94    1
    16    93    92    1
    17    45    42    1
    18    94   100   am
    19    91    90   ar
    20    91    89   ar
    21    90    88   ar
    22    41    42    1
    23    84    83    2
    24    42    43    1
    25    40    39    1
    26    63    62   ar
    27    63    61   ar
    28    34    33    1
    29   100   101    1
    30    89    87   ar
    31    88    86   ar
    32    62    60   ar
    33    92    83   am
    34   101   104    1
    35   101   102    1
    36    33    30    1
    37   104   105    1
    38    83    82    1
    39    39    36    1
    40    87    86   ar
    41    86    85    1
    42    43    44    2
    43    61    59   ar
    44    60    58   ar
    45   106   102   am
    46   106   107    1
    47   102   103    2
    48    37    36    1
    49    37    38    2
    50    35    36    1
    51    35    31   am
    52    82    85    1
    53    82    81    1
    54    30    31    1
    55    30    29    1
    56     6     5    1
    57    31    32    2
    58   110   107    1
    59   110   111    1
    60    59    58   ar
    61    58    57    1
    62   107   108    1
    63    81    78   am
    64   113   111   ar
    65   111   112   ar
    66   109   108    2
    67     5     7    1
    68     5     2    1
    69    78    79    2
    70    78    77    1
    71    80    77    1
    72    57    54    1
    73    53    54    1
    74    54    55    1
    75     1     2    1
    76     2     3    1
    77    77    76    1
    78    75    73    1
    79    28    26    1
    80    25    24    2
    81    55    56    2
    82    76    67   am
    83    73    74    1
    84    73    72    2
    85    24    23    1
    86     3     4    2
    87    26    23    1
    88    26    27    1
    89    70    69    1
    90    70    71    1
    91    72    71    1
    92    67    68    2
    93    67    66    1
    94    21    19   ar
    95    21    20   ar
    96    23    22    1
    97    69    66    1
    98    19    17   ar
    99    20    18   ar
   100    66    65    1
   101    17    16   ar
   102    17    15   ar
   103    18    15   ar
   104    16    14   ar
   105    15    13   ar
   106    14    13   ar
   107    13    12    1
   108   114   115    1
   109   123   124   ar
   110   123   121   ar
   111   124   122   ar
   112   121   119   ar
   113   115   116    1
   114   115   118    1
   115    12     9    1
   116   122   120   ar
   117   119   120   ar
   118   119   118    1
   119   116   117    2
   120    11    10    2
   121    10     9    1
   122     9     8    1
