@<TRIPOS>MOLECULE
tmp/1ejoA00.pdb
 110 105 0 0 0
SMALL
GASTEIGER

@<TRIPOS>ATOM
      1  N         15.3320   -2.6030  -10.5480 N.3    27  GLU27      -0.1231
      2  CA        15.0840   -2.5090  -11.9810 C.3    27  GLU27       0.1699
      3  C         14.4200   -1.1640  -12.2620 C.2    27  GLU27       0.2592
      4  O         13.8250   -0.5610  -11.3680 O.2    27  GLU27      -0.2718
      5  CB        14.1590   -3.6420  -12.4350 C.3    27  GLU27       0.0402
      6  CG        13.9130   -3.6910  -13.9430 C.3    27  GLU27       0.1161
      7  CD        12.6690   -4.4790  -14.3280 C.2    27  GLU27       0.3649
      8  OE1       12.2090   -5.3220  -13.5280 O.co2  27  GLU27      -0.2457
      9  OE2       12.1470   -4.2470  -15.4380 O.co2  27  GLU27      -0.2457
     10  N         14.5300   -0.6980  -13.5030 N.am   28  SER28      -0.1952
     11  CA        13.9370    0.5730  -13.9080 C.3    28  SER28       0.1924
     12  C         12.4370    0.6360  -13.6310 C.2    28  SER28       0.2314
     13  O         11.6940   -0.2980  -13.9400 O.2    28  SER28      -0.2863
     14  CB        14.1860    0.8230  -15.3930 C.3    28  SER28       0.2116
     15  OG        13.5570    2.0210  -15.8160 O.3    28  SER28      -0.2180
     16  N         10.8130    3.2090  -14.8070 N.3    30  ASP30      -0.1225
     17  CA        10.3890    4.0850  -15.8920 C.3    30  ASP30       0.1805
     18  C          9.6890    3.3740  -17.0390 C.2    30  ASP30       0.2598
     19  O         10.0040    2.2290  -17.3730 O.2    30  ASP30      -0.2718
     20  CB        11.5780    4.8800  -16.4320 C.3    30  ASP30       0.1424
     21  CG        12.0890    5.9100  -15.4460 C.2    30  ASP30       0.3668
     22  OD1       11.8390    5.7610  -14.2300 O.co2  30  ASP30      -0.2456
     23  OD2       12.7480    6.8740  -15.8860 O.co2  30  ASP30      -0.2456
     24  N          8.7480    4.0890  -17.6460 N.am   31  SER31      -0.1938
     25  CA         7.9740    3.5860  -18.7670 C.3    31  SER31       0.2055
     26  C          7.3690    4.8000  -19.4680 C.2    31  SER31       0.2643
     27  O          6.6760    5.6050  -18.8410 O.2    31  SER31      -0.2714
     28  CB         6.8730    2.6520  -18.2620 C.3    31  SER31       0.2130
     29  OG         6.5520    1.6690  -19.2260 O.3    31  SER31      -0.2179
     30  N          7.6800    4.9500  -20.7540 N.am   32  TYR32      -0.1973
     31  CA         7.1890    6.0650  -21.5700 C.3    32  TYR32       0.1639
     32  C          7.7560    7.4190  -21.1440 C.2    32  TYR32       0.2290
     33  O          7.1460    8.4620  -21.3840 O.2    32  TYR32      -0.2864
     34  CB         5.6570    6.1140  -21.5550 C.3    32  TYR32       0.0560
     35  CG         5.0050    4.8990  -22.1660 C.ar   32  TYR32      -0.0198
     36  CD1        4.3440    3.9670  -21.3700 C.ar   32  TYR32      -0.0009
     37  CD2        5.0510    4.6790  -23.5420 C.ar   32  TYR32      -0.0009
     38  CE1        3.7450    2.8440  -21.9260 C.ar   32  TYR32       0.0417
     39  CE2        4.4550    3.5570  -24.1110 C.ar   32  TYR32       0.0417
     40  CZ         3.8040    2.6440  -23.2950 C.ar   32  TYR32       0.1957
     41  OH         3.2120    1.5330  -23.8440 O.3    32  TYR32      -0.2866
     42  N          8.1400    8.3150  -18.1430 N.3    34  ASN34      -0.1240
     43  CA         7.5720    8.6450  -16.8390 C.3    34  ASN34       0.1653
     44  C          8.0730    7.6530  -15.7880 C.2    34  ASN34       0.2266
     45  O          8.2100    6.4650  -16.0640 O.2    34  ASN34      -0.2867
     46  CB         6.0430    8.5560  -16.8760 C.3    34  ASN34       0.1155
     47  CG         5.4070    9.6320  -17.7430 C.2    34  ASN34       0.2627
     48  OD1        4.7680   10.5530  -17.2280 O.2    34  ASN34      -0.2716
     49  ND2        5.6310    9.5660  -19.0510 N.am   34  ASN34      -0.0877
     50  N          7.2410    5.7140  -12.4980 N.3    36  PHE36      -0.1241
     51  CA         6.1100    5.2860  -11.6820 C.3    36  PHE36       0.1605
     52  C          6.4780    4.9620  -10.2350 C.2    36  PHE36       0.2264
     53  O          6.2240    3.8630   -9.7420 O.2    36  PHE36      -0.2867
     54  CB         5.3960    4.1110  -12.3510 C.3    36  PHE36       0.0534
     55  CG         4.7940    4.4600  -13.6800 C.ar   36  PHE36      -0.0203
     56  CD1        5.5160    4.2780  -14.8550 C.ar   36  PHE36      -0.0042
     57  CD2        3.5200    5.0120  -13.7540 C.ar   36  PHE36      -0.0042
     58  CE1        4.9790    4.6470  -16.0840 C.ar   36  PHE36      -0.0003
     59  CE2        2.9750    5.3830  -14.9790 C.ar   36  PHE36      -0.0003
     60  CZ         3.7060    5.2010  -16.1470 C.ar   36  PHE36      -0.0000
     61  N          4.2950    9.5670   -9.0760 N.3    54  ARG54      -0.1245
     62  CA         5.1890    9.5480  -10.2300 C.3    54  ARG54       0.1563
     63  C          6.5090   10.3160  -10.0470 C.2    54  ARG54       0.2260
     64  O          6.8600   11.1720  -10.8580 O.2    54  ARG54      -0.2867
     65  CB         4.4480    9.9590  -11.5250 C.3    54  ARG54       0.0307
     66  CG         3.7890    8.7710  -12.2560 C.3    54  ARG54       0.0489
     67  CD         3.1200    9.1530  -13.5880 C.3    54  ARG54       0.2205
     68  NE         1.8280    9.8060  -13.4250 N.pl3  54  ARG54      -0.0865
     69  CZ         1.4790   10.9500  -14.0070 C.cat  54  ARG54       0.5346
     70  NH1        2.3150   11.5790  -14.8250 N.pl3  54  ARG54       0.1354
     71  NH2        0.2210   11.3650  -13.9450 N.pl3  54  ARG54       0.1354
     72  N          4.9320    1.2320   -9.4820 N.3    95  SER95      -0.1202
     73  CA         3.7570    0.7040  -10.1640 C.3    95  SER95       0.2020
     74  C          4.0490    0.5310  -11.6480 C.2    95  SER95       0.2619
     75  O          3.1430    0.5630  -12.4820 O.2    95  SER95      -0.2717
     76  CB         2.5670    1.6390   -9.9660 C.3    95  SER95       0.2103
     77  OG         2.8300    2.9070  -10.5330 O.3    95  SER95      -0.2182
     78  N          5.3280    0.3660  -11.9700 N.am   96  ASN96      -0.1960
     79  CA         5.7500    0.1810  -13.3500 C.3    96  ASN96       0.1819
     80  C          5.5890   -1.2800  -13.7640 C.2    96  ASN96       0.2621
     81  O          5.3340   -1.5750  -14.9280 O.2    96  ASN96      -0.2715
     82  CB         7.2090    0.6220  -13.5390 C.3    96  ASN96       0.1195
     83  CG         7.7280    0.3430  -14.9450 C.2    96  ASN96       0.2630
     84  OD1        7.0670    0.6690  -15.9340 O.2    96  ASN96      -0.2716
     85  ND2        8.9450   -0.1850  -15.0400 N.am   96  ASN96      -0.0877
     86  N          5.7500   -2.1920  -12.8120 N.am   97  GLU97      -0.1963
     87  CA         5.6320   -3.6150  -13.1080 C.3    97  GLU97       0.1733
     88  C          4.7540   -4.3610  -12.1120 C.2    97  GLU97       0.2616
     89  O          4.7230   -4.0330  -10.9280 O.2    97  GLU97      -0.2715
     90  CB         7.0240   -4.2600  -13.1490 C.3    97  GLU97       0.0429
     91  CG         7.0280   -5.7590  -13.4350 C.3    97  GLU97       0.1163
     92  CD         8.4220   -6.3580  -13.3830 C.2    97  GLU97       0.3649
     93  OE1        9.1970   -6.1490  -14.3400 O.co2  97  GLU97      -0.2457
     94  OE2        8.7450   -7.0360  -12.3860 O.co2  97  GLU97      -0.2457
     95  N          4.0050   -5.3290  -12.6300 N.am   98  ASP98      -0.1971
     96  CA         3.1400   -6.1840  -11.8240 C.3    98  ASP98       0.1709
     97  C          4.0830   -7.3030  -11.4000 C.2    98  ASP98       0.2293
     98  O          4.7250   -7.9360  -12.2420 O.2    98  ASP98      -0.2864
     99  CB         2.0120   -6.7440  -12.7160 C.3    98  ASP98       0.1436
    100  CG         0.9910   -7.5820  -11.9460 C.2    98  ASP98       0.3671
    101  OD1       -0.0370   -7.9470  -12.5540 O.co2  98  ASP98      -0.2456
    102  OD2        1.1950   -7.8890  -10.7560 O.co2  98  ASP98      -0.2456
    103  N          3.1410   -4.8310   -7.9180 N.3   100  LEU100     -0.1245
    104  CA         3.5220   -3.5360   -7.3670 C.3   100  LEU100      0.1561
    105  C          4.2450   -3.8270   -6.0580 C.2   100  LEU100      0.2260
    106  O          3.8130   -4.6830   -5.2880 O.2   100  LEU100     -0.2867
    107  CB         2.2830   -2.6740   -7.1000 C.3   100  LEU100      0.0270
    108  CG         1.6180   -1.9740   -8.2910 C.3   100  LEU100      0.0019
    109  CD1        1.2620   -2.9670   -9.3870 C.3   100  LEU100      0.0001
    110  CD2        0.3790   -1.2370   -7.8140 C.3   100  LEU100      0.0001
@<TRIPOS>BOND
     1    39    37   ar
     2    39    40   ar
     3    41    40    1
     4    37    35   ar
     5    40    38   ar
     6    35    34    1
     7    35    36   ar
     8    38    36   ar
     9    31    34    1
    10    31    32    1
    11    31    30    1
    12    33    32    2
    13    30    26   am
    14    26    27    2
    15    26    25    1
    16    29    28    1
    17    49    47   am
    18    25    28    1
    19    25    24    1
    20    42    43    1
    21    47    48    2
    22    47    46    1
    23    24    18   am
    24    19    18    2
    25    18    17    1
    26    46    43    1
    27    43    44    1
    28    20    17    1
    29    20    21    1
    30    60    58   ar
    31    60    59   ar
    32    58    56   ar
    33    45    44    2
    34    84    83    2
    35    17    16    1
    36    23    21   ar
    37    15    14    1
    38    21    22   ar
    39     9     7   ar
    40    14    11    1
    41    85    83   am
    42    59    57   ar
    43    83    82    1
    44    81    80    2
    45    56    55   ar
    46    70    69    1
    47    93    92   ar
    48     7     6    1
    49     7     8   ar
    50    69    71    1
    51    69    68    2
    52     6     5    1
    53    13    12    2
    54    11    12    1
    55    11    10    1
    56    80    79    1
    57    80    86   am
    58    57    55   ar
    59    55    54    1
    60    67    68    1
    61    67    66    1
    62    82    79    1
    63    10     3   am
    64    91    92    1
    65    91    90    1
    66    92    94   ar
    67    79    78    1
    68    90    87    1
    69    87    86    1
    70    87    88    1
    71    99   100    1
    72    99    96    1
    73    95    88   am
    74    95    96    1
    75   101   100   ar
    76    50    51    1
    77    75    74    2
    78     5     2    1
    79    54    51    1
    80     3     2    1
    81     3     4    2
    82    66    65    1
    83    98    97    2
    84    88    89    2
    85     2     1    1
    86    78    74   am
    87   100   102   ar
    88    96    97    1
    89    51    52    1
    90    74    73    1
    91    65    62    1
    92    64    63    2
    93    77    76    1
    94    52    53    2
    95    62    63    1
    96    62    61    1
    97    73    76    1
    98    73    72    1
    99   109   108    1
   100   108   110    1
   101   108   107    1
   102   103   104    1
   103   104   107    1
   104   104   105    1
   105   105   106    2
