@<TRIPOS>MOLECULE
tmp/1ek0A00.pdb
 169 164 0 0 0
SMALL
GASTEIGER

@<TRIPOS>ATOM
      1  N         30.8150   13.0040  -10.0520 N.3    12  ALA12      -0.1231
      2  CA        31.8670   12.1290   -9.6020 C.3    12  ALA12       0.1694
      3  C         33.0040   12.8780   -8.9110 C.2    12  ALA12       0.2592
      4  O         33.3640   13.9890   -9.3300 O.2    12  ALA12      -0.2718
      5  CB        32.4780   11.3550  -10.7870 C.3    12  ALA12       0.0304
      6  N         33.5440   12.2470   -7.8780 N.am   13  ALA13      -0.1966
      7  CA        34.7280   12.6540   -7.1580 C.3    13  ALA13       0.1728
      8  C         34.5530   13.8540   -6.2390 C.2    13  ALA13       0.2616
      9  O         35.5430   14.3410   -5.6900 O.2    13  ALA13      -0.2715
     10  CB        35.8730   13.0030   -8.1450 C.3    13  ALA13       0.0334
     11  N         33.3050   14.3320   -6.0330 N.am   14  VAL14      -0.1963
     12  CA        33.1240   15.4450   -5.0980 C.3    14  VAL14       0.1727
     13  C         33.2750   15.0480   -3.6220 C.2    14  VAL14       0.2617
     14  O         33.4690   15.9560   -2.8070 O.2    14  VAL14      -0.2715
     15  CB        31.7440   16.1200   -5.2460 C.3    14  VAL14       0.0290
     16  CG1       31.6330   16.7810   -6.6380 C.3    14  VAL14       0.0023
     17  CG2       30.5790   15.1770   -5.0060 C.3    14  VAL14       0.0023
     18  N         33.2170   13.7570   -3.3110 N.am   15  GLY15      -0.1940
     19  CA        33.4630   13.3260   -1.9290 C.3    15  GLY15       0.2014
     20  C         32.1930   12.7490   -1.3050 C.2    15  GLY15       0.2639
     21  O         32.1760   12.6770   -0.0640 O.2    15  GLY15      -0.2714
     22  N         31.1740   12.3130   -2.0360 N.am   16  LYS16      -0.1963
     23  CA        29.9910   11.6600   -1.4550 C.3    16  LYS16       0.1728
     24  C         30.3900   10.4880   -0.5690 C.2    16  LYS16       0.2617
     25  O         29.9730   10.4110    0.5870 O.2    16  LYS16      -0.2715
     26  CB        29.0220   11.2250   -2.5620 C.3    16  LYS16       0.0311
     27  CG        28.5210   12.3440   -3.4610 C.3    16  LYS16       0.0038
     28  CD        27.5510   11.8840   -4.5450 C.3    16  LYS16       0.0206
     29  CE        28.2200   10.9720   -5.5780 C.3    16  LYS16       0.1093
     30  NZ        29.3920   11.6080   -6.2360 N.3    16  LYS16      -0.1314
     31  N         31.1990    9.5690   -1.1280 N.am   17  SER17      -0.1936
     32  CA        31.5580    8.4010   -0.2890 C.3    17  SER17       0.2055
     33  C         32.4060    8.7820    0.8840 C.2    17  SER17       0.2643
     34  O         32.2690    8.1500    1.9570 O.2    17  SER17      -0.2714
     35  CB        32.2800    7.3740   -1.2110 C.3    17  SER17       0.2130
     36  OG        31.3730    6.9370   -2.1900 O.3    17  SER17      -0.2179
     37  N         33.2350    9.7910    0.7290 N.am   18  SER18      -0.1949
     38  CA        34.0870   10.2140    1.8270 C.3    18  SER18       0.1924
     39  C         33.2580   10.8800    2.9270 C.2    18  SER18       0.2314
     40  O         33.5640   10.7460    4.1150 O.2    18  SER18      -0.2863
     41  CB        35.2150   11.1260    1.3630 C.3    18  SER18       0.2116
     42  OG        36.0650   10.4090    0.4440 O.3    18  SER18      -0.2180
     43  N         38.8790    8.4470    6.8930 N.3    28  PHE28      -0.1227
     44  CA        39.0500    9.1220    5.6190 C.3    28  PHE28       0.1736
     45  C         40.1020    8.3620    4.8040 C.2    28  PHE28       0.2595
     46  O         41.0900    7.9370    5.3960 O.2    28  PHE28      -0.2718
     47  CB        39.4100   10.5810    5.8420 C.3    28  PHE28       0.0547
     48  CG        39.8390   11.2540    4.5470 C.ar   28  PHE28      -0.0202
     49  CD1       38.8580   11.7000    3.6760 C.ar   28  PHE28      -0.0042
     50  CD2       41.1720   11.4200    4.2220 C.ar   28  PHE28      -0.0042
     51  CE1       39.1960   12.3070    2.4910 C.ar   28  PHE28      -0.0003
     52  CE2       41.5220   12.0280    3.0270 C.ar   28  PHE28      -0.0003
     53  CZ        40.5400   12.4610    2.1620 C.ar   28  PHE28      -0.0000
     54  N         39.8860    8.1740    3.5080 N.am   29  ALA29      -0.1966
     55  CA        40.8540    7.5220    2.6300 C.3    29  ALA29       0.1728
     56  C         41.2300    8.4370    1.4610 C.2    29  ALA29       0.2616
     57  O         40.3330    8.7790    0.6760 O.2    29  ALA29      -0.2715
     58  CB        40.2830    6.2200    2.0950 C.3    29  ALA29       0.0334
     59  N         42.5020    8.8320    1.3620 N.am   30  GLU30      -0.1977
     60  CA        42.8920    9.6730    0.2270 C.3    30  GLU30       0.1602
     61  C         42.7090    8.9010   -1.0740 C.2    30  GLU30       0.2287
     62  O         42.4860    9.4980   -2.1230 O.2    30  GLU30      -0.2864
     63  CB        44.3290   10.1790    0.3620 C.3    30  GLU30       0.0415
     64  CG        44.8240   10.9310   -0.8650 C.3    30  GLU30       0.1163
     65  CD        44.1270   12.2670   -1.0470 C.2    30  GLU30       0.3649
     66  OE1       44.0130   13.0020   -0.0420 O.co2  30  GLU30      -0.2457
     67  OE2       43.7100   12.5630   -2.1890 O.co2  30  GLU30      -0.2457
     68  N         40.1620    6.6700   -1.8210 N.3    32  LYS32      -0.1231
     69  CA        38.8190    6.1000   -1.9930 C.3    32  LYS32       0.1693
     70  C         38.4760    5.8020   -3.4500 C.2    32  LYS32       0.2592
     71  O         38.7230    6.6640   -4.3070 O.2    32  LYS32      -0.2718
     72  CB        37.8550    7.1080   -1.3540 C.3    32  LYS32       0.0285
     73  CG        36.5270    6.5320   -0.9280 C.3    32  LYS32       0.0035
     74  CD        36.5090    6.1790    0.5480 C.3    32  LYS32       0.0206
     75  CE        35.2440    5.4220    0.9380 C.3    32  LYS32       0.1093
     76  NZ        34.8430    4.4220   -0.0800 N.3    32  LYS32      -0.1314
     77  N         37.9610    4.6130   -3.8080 N.am   33  GLU33      -0.1966
     78  CA        37.7430    4.3410   -5.2300 C.3    33  GLU33       0.1718
     79  C         36.3170    4.7050   -5.6600 C.2    33  GLU33       0.2458
     80  O         35.4090    4.7480   -4.8180 O.2    33  GLU33      -0.2730
     81  CB        38.0250    2.8910   -5.6100 C.3    33  GLU33       0.0428
     82  CG        36.8230    2.1650   -6.1960 C.3    33  GLU33       0.1163
     83  CD        37.1470    0.7490   -6.6300 C.2    33  GLU33       0.3649
     84  OE1       37.9900    0.5820   -7.5390 O.co2  33  GLU33      -0.2457
     85  OE2       36.5540   -0.1920   -6.0550 O.co2  33  GLU33      -0.2457
     86  N         36.1260    4.9830   -6.9460 N.am   34  PRO34      -0.2716
     87  CA        34.7840    5.3930   -7.4130 C.3    34  PRO34       0.1536
     88  C         33.7610    4.3440   -7.0390 C.2    34  PRO34       0.2599
     89  O         34.0100    3.1340   -7.0910 O.2    34  PRO34      -0.2715
     90  CB        34.9460    5.5140   -8.9270 C.3    34  PRO34       0.0310
     91  CG        36.3990    5.9150   -9.0290 C.3    34  PRO34       0.0237
     92  CD        37.0890    4.9730   -8.0740 C.3    34  PRO34       0.0939
     93  N         32.5790    4.8060   -6.6230 N.am   35  THR35      -0.1951
     94  CA        31.5320    3.8530   -6.2870 C.3    35  THR35       0.1897
     95  C         30.9930    3.1720   -7.5340 C.2    35  THR35       0.2313
     96  O         30.8580    3.7360   -8.6410 O.2    35  THR35      -0.2863
     97  CB        30.4000    4.6410   -5.5750 C.3    35  THR35       0.1794
     98  OG1       31.0210    5.2150   -4.4410 O.3    35  THR35      -0.2208
     99  CG2       29.2400    3.7470   -5.2020 C.3    35  THR35       0.0378
    100  N         25.1780    7.2380   -3.9820 N.3    59  THR59      -0.1203
    101  CA        25.1650    6.8880   -5.4200 C.3    59  THR59       0.1994
    102  C         26.5080    7.1740   -6.0830 C.2    59  THR59       0.2618
    103  O         27.3030    8.0210   -5.6640 O.2    59  THR59      -0.2717
    104  CB        24.0530    7.6050   -6.2130 C.3    59  THR59       0.1784
    105  OG1       24.3870    9.0020   -6.3120 O.3    59  THR59      -0.2211
    106  CG2       22.6920    7.4710   -5.5270 C.3    59  THR59       0.0376
    107  N         26.7740    6.4130   -7.1610 N.am   60  ALA60      -0.1965
    108  CA        27.9400    6.7350   -7.9690 C.3    60  ALA60       0.1728
    109  C         27.6580    7.9390   -8.8510 C.2    60  ALA60       0.2617
    110  O         26.5850    7.9550   -9.4710 O.2    60  ALA60      -0.2715
    111  CB        28.3130    5.5200   -8.8390 C.3    60  ALA60       0.0334
    112  N         28.5660    8.9030   -8.9310 N.am   61  GLY61      -0.1940
    113  CA        28.2970   10.1020   -9.7190 C.3    61  GLY61       0.2014
    114  C         28.8070   10.0830  -11.1380 C.2    61  GLY61       0.2638
    115  O         28.4720   10.9230  -11.9550 O.2    61  GLY61      -0.2714
    116  N         29.6040    9.1000  -11.5070 N.am   62  GLN62      -0.1977
    117  CA        29.9220    8.9210  -12.9270 C.3    62  GLN62       0.1601
    118  C         28.7030    8.7050  -13.7890 C.2    62  GLN62       0.2287
    119  O         27.7240    8.0100  -13.5120 O.2    62  GLN62      -0.2864
    120  CB        30.8370    7.7020  -13.0640 C.3    62  GLN62       0.0394
    121  CG        32.1730    7.8450  -12.3460 C.3    62  GLN62       0.0908
    122  CD        33.0350    6.6260  -12.6460 C.2    62  GLN62       0.2608
    123  OE1       32.9090    5.5930  -12.0030 O.2    62  GLN62      -0.2717
    124  NE2       33.8770    6.8340  -13.6450 N.am   62  GLN62      -0.0878
    125  N         31.6940   20.4700   -0.4840 N.3   115  ASN115     -0.1225
    126  CA        32.7400   19.6860    0.1890 C.3   115  ASN115      0.1785
    127  C         34.1670   20.0840   -0.1930 C.2   115  ASN115      0.2597
    128  O         34.3730   20.8380   -1.1390 O.2   115  ASN115     -0.2718
    129  CB        32.4810   18.2040   -0.1190 C.3   115  ASN115      0.1169
    130  CG        33.2920   17.2540    0.7390 C.2   115  ASN115      0.2627
    131  OD1       33.4160   17.4510    1.9470 O.2   115  ASN115     -0.2716
    132  ND2       33.9040   16.2470    0.0900 N.am  115  ASN115     -0.0877
    133  N         35.1460   19.5850    0.5410 N.am  116  LYS116     -0.1980
    134  CA        36.5860   19.7330    0.3740 C.3   116  LYS116      0.1596
    135  C         37.0870   21.0960    0.8320 C.2   116  LYS116      0.2287
    136  O         38.1360   21.5760    0.4030 O.2   116  LYS116     -0.2864
    137  CB        37.0720   19.4740   -1.0740 C.3   116  LYS116      0.0298
    138  CG        36.5030   18.1620   -1.6160 C.3   116  LYS116      0.0038
    139  CD        37.4650   17.5700   -2.6650 C.3   116  LYS116      0.0206
    140  CE        36.8380   16.3810   -3.3620 C.3   116  LYS116      0.1093
    141  NZ        37.7030   15.8500   -4.4520 N.3   116  LYS116     -0.1314
    142  N         38.7240   21.8600    3.2780 N.3   118  ASP118     -0.1239
    143  CA        40.0510   21.8100    3.8910 C.3   118  ASP118      0.1674
    144  C         41.1070   22.2210    2.8680 C.2   118  ASP118      0.2266
    145  O         42.1880   22.6790    3.2250 O.2   118  ASP118     -0.2867
    146  CB        40.4110   20.4060    4.3770 C.3   118  ASP118      0.1410
    147  CG        40.2770   19.3950    3.2540 C.2   118  ASP118      0.3668
    148  OD1       39.1120   19.0380    2.9700 O.co2 118  ASP118     -0.2456
    149  OD2       41.2840   18.9710    2.6480 O.co2 118  ASP118     -0.2456
    150  N         34.2020   19.2990    5.2230 N.3   147  SER147     -0.1202
    151  CA        35.3930   18.5700    4.8130 C.3   147  SER147      0.2020
    152  C         35.2560   17.1360    5.2770 C.2   147  SER147      0.2619
    153  O         35.2600   16.9160    6.4970 O.2   147  SER147     -0.2717
    154  CB        36.6670   19.1970    5.3790 C.3   147  SER147      0.2103
    155  OG        37.7350   18.2850    5.0890 O.3   147  SER147     -0.2182
    156  N         35.1740   16.1810    4.3480 N.am  148  ALA148     -0.1965
    157  CA        35.2570   14.7900    4.7950 C.3   148  ALA148      0.1728
    158  C         36.6310   14.4840    5.3920 C.2   148  ALA148      0.2616
    159  O         36.7710   13.6350    6.2700 O.2   148  ALA148     -0.2715
    160  CB        35.0080   13.8440    3.6450 C.3   148  ALA148      0.0334
    161  N         37.6470   15.1840    4.8780 N.am  149  LYS149     -0.1977
    162  CA        39.0040   14.8250    5.3010 C.3   149  LYS149      0.1596
    163  C         39.2680   15.2110    6.7490 C.2   149  LYS149      0.2287
    164  O         39.8510   14.3670    7.4370 O.2   149  LYS149     -0.2864
    165  CB        40.0190   15.4910    4.3700 C.3   149  LYS149      0.0298
    166  CG        41.4790   15.2570    4.8130 C.3   149  LYS149      0.0038
    167  CD        42.4130   15.7520    3.7050 C.3   149  LYS149      0.0206
    168  CE        43.8730   15.5210    4.0910 C.3   149  LYS149      0.1093
    169  NZ        44.7860   16.0860    3.0590 N.3   149  LYS149     -0.1314
@<TRIPOS>BOND
     1   118   119    2
     2   118   117    1
     3   124   122   am
     4   120   117    1
     5   120   121    1
     6   117   116    1
     7   122   121    1
     8   122   123    2
     9   115   114    2
    10   116   114   am
    11   114   113    1
    12     5     2    1
    13     1     2    1
    14   113   112    1
    15     2     3    1
    16   110   109    2
    17     4     3    2
    18    91    90    1
    19    91    92    1
    20   112   109   am
    21    90    87    1
    22     3     6   am
    23   109   108    1
    24   111   108    1
    25    96    95    2
    26    10     7    1
    27    92    86    1
    28   108   107    1
    29     6     7    1
    30    84    83   ar
    31    95    94    1
    32    87    88    1
    33    87    86    1
    34   107   102   am
    35     7     8    1
    36    89    88    2
    37    88    93   am
    38    86    79   am
    39    16    15    1
    40    83    82    1
    41    83    85   ar
    42    93    94    1
    43   105   104    1
    44    94    97    1
    45     8    11   am
    46     8     9    2
    47    30    29    1
    48   104   106    1
    49   104   101    1
    50    82    81    1
    51   102   103    2
    52   102   101    1
    53    11    12    1
    54    79    78    1
    55    79    80    2
    56    81    78    1
    57    29    28    1
    58    97    99    1
    59    97    98    1
    60   101   100    1
    61    15    12    1
    62    15    17    1
    63    78    77    1
    64    12    13    1
    65    28    27    1
    66   141   140    1
    67    71    70    2
    68    77    70   am
    69    13    18   am
    70    13    14    2
    71    27    26    1
    72    70    69    1
    73   140   139    1
    74    18    19    1
    75   139   138    1
    76    26    23    1
    77    36    35    1
    78    67    65   ar
    79    62    61    2
    80    22    23    1
    81    22    20   am
    82    69    68    1
    83    69    72    1
    84    19    20    1
    85   138   137    1
    86    23    24    1
    87    72    73    1
    88    20    21    2
    89    35    32    1
    90   128   127    2
    91    31    24   am
    92    31    32    1
    93   137   134    1
    94    61    60    1
    95    65    64    1
    96    65    66   ar
    97    73    74    1
    98    64    63    1
    99    24    25    2
   100   125   126    1
   101    32    33    1
   102   127   126    1
   103   127   133   am
   104   129   126    1
   105   129   130    1
   106    76    75    1
   107   132   130   am
   108    60    63    1
   109    60    59    1
   110   134   133    1
   111   134   135    1
   112   136   135    2
   113    42    41    1
   114    74    75    1
   115    57    56    2
   116    37    33   am
   117    37    38    1
   118   130   131    2
   119    33    34    2
   120    59    56   am
   121    41    38    1
   122    56    55    1
   123    38    39    1
   124    58    55    1
   125    53    51   ar
   126    53    52   ar
   127    51    49   ar
   128    55    54    1
   129   149   147   ar
   130   144   145    2
   131   144   143    1
   132    39    40    2
   133   148   147   ar
   134    52    50   ar
   135   169   168    1
   136   147   146    1
   137   142   143    1
   138    54    45   am
   139   160   157    1
   140    49    48   ar
   141   167   168    1
   142   167   166    1
   143   143   146    1
   144    50    48   ar
   145   156   157    1
   146   156   152   am
   147   165   166    1
   148   165   162    1
   149    48    47    1
   150   157   158    1
   151    45    46    2
   152    45    44    1
   153   151   150    1
   154   151   152    1
   155   151   154    1
   156   161   162    1
   157   161   158   am
   158   155   154    1
   159   152   153    2
   160   162   163    1
   161   158   159    2
   162    44    47    1
   163    44    43    1
   164   163   164    2
