@<TRIPOS>MOLECULE
tmp/1ek1B00.pdb
 194 192 0 0 0
SMALL
GASTEIGER

@<TRIPOS>ATOM
      1  N        -44.2740  -66.6790  -51.1330 N.3   262  PHE262     -0.1241
      2  CA       -44.8420  -65.7340  -50.1740 C.3   262  PHE262      0.1605
      3  C        -46.1360  -65.0830  -50.6510 C.2   262  PHE262      0.2264
      4  O        -46.2840  -64.7280  -51.8350 O.2   262  PHE262     -0.2867
      5  CB       -43.8290  -64.6200  -49.8450 C.3   262  PHE262      0.0534
      6  CG       -44.3810  -63.5000  -48.9370 C.ar  262  PHE262     -0.0203
      7  CD1      -45.4120  -62.6450  -49.3650 C.ar  262  PHE262     -0.0042
      8  CD2      -43.8650  -63.3080  -47.6570 C.ar  262  PHE262     -0.0042
      9  CE1      -45.9120  -61.6370  -48.5280 C.ar  262  PHE262     -0.0003
     10  CE2      -44.3580  -62.3050  -46.8220 C.ar  262  PHE262     -0.0003
     11  CZ       -45.3800  -61.4740  -47.2550 C.ar  262  PHE262     -0.0000
     12  N        -42.8910  -68.1940  -57.1040 N.3   330  ASP330     -0.1225
     13  CA       -42.6580  -67.0420  -56.2380 C.3   330  ASP330      0.1805
     14  C        -41.2140  -67.0610  -55.6420 C.2   330  ASP330      0.2597
     15  O        -40.2190  -67.4920  -56.2860 O.2   330  ASP330     -0.2718
     16  CB       -43.7220  -67.0870  -55.1140 C.3   330  ASP330      0.1424
     17  CG       -44.0500  -65.7260  -54.5090 C.2   330  ASP330      0.3668
     18  OD1      -43.0950  -64.9520  -54.3480 O.co2 330  ASP330     -0.2456
     19  OD2      -45.2560  -65.4820  -54.1730 O.co2 330  ASP330     -0.2456
     20  N        -41.1120  -66.6000  -54.3990 N.am  331  TRP331     -0.1976
     21  CA       -39.8190  -66.5080  -53.7430 C.3   331  TRP331      0.1640
     22  C        -39.0410  -67.8350  -53.7110 C.2   331  TRP331      0.2290
     23  O        -37.8250  -67.8490  -53.5150 O.2   331  TRP331     -0.2864
     24  CB       -40.0330  -65.9800  -52.3230 C.3   331  TRP331      0.0576
     25  CG       -39.6090  -64.5230  -52.0450 C.ar  331  TRP331      0.0006
     26  CD1      -40.4140  -63.5010  -51.5800 C.ar  331  TRP331      0.0946
     27  CD2      -38.2700  -63.9890  -52.0700 C.ar  331  TRP331      0.0152
     28  NE1      -39.6580  -62.3810  -51.3090 N.ar  331  TRP331     -0.2442
     29  CE2      -38.3430  -62.6460  -51.5970 C.ar  331  TRP331      0.0810
     30  CE3      -37.0130  -64.5170  -52.4390 C.ar  331  TRP331      0.0012
     31  CZ2      -37.2020  -61.8190  -51.4840 C.ar  331  TRP331      0.0191
     32  CZ3      -35.8830  -63.6970  -52.3230 C.ar  331  TRP331      0.0001
     33  CH2      -35.9900  -62.3570  -51.8460 C.ar  331  TRP331      0.0015
     34  N        -37.0010  -68.5530  -56.8600 N.3   334  VAL334     -0.1245
     35  CA       -35.6990  -67.9270  -56.7800 C.3   334  VAL334      0.1561
     36  C        -34.7500  -68.9860  -56.2330 C.2   334  VAL334      0.2260
     37  O        -33.7240  -69.2680  -56.8360 O.2   334  VAL334     -0.2867
     38  CB       -35.7060  -66.7170  -55.8090 C.3   334  VAL334      0.0252
     39  CG1      -34.2830  -66.1060  -55.6660 C.3   334  VAL334      0.0019
     40  CG2      -36.7150  -65.7060  -56.2940 C.3   334  VAL334      0.0019
     41  N        -41.4960  -66.7960  -61.4490 N.3   355  THR355     -0.1218
     42  CA       -40.1360  -66.3230  -61.1580 C.3   355  THR355      0.1862
     43  C        -39.0890  -66.6970  -62.2050 C.2   355  THR355      0.2287
     44  O        -38.9310  -67.8550  -62.5730 O.2   355  THR355     -0.2866
     45  CB       -39.5980  -66.7750  -59.7780 C.3   355  THR355      0.1770
     46  OG1      -40.5620  -66.4860  -58.7490 O.3   355  THR355     -0.2211
     47  CG2      -38.2840  -66.0120  -59.4830 C.3   355  THR355      0.0375
     48  N        -33.0820  -64.3640  -62.1220 N.3   358  MET358     -0.1245
     49  CA       -32.6190  -62.9720  -62.0970 C.3   358  MET358      0.1570
     50  C        -31.2290  -62.7520  -61.4800 C.2   358  MET358      0.2261
     51  O        -31.1140  -62.2910  -60.3260 O.2   358  MET358     -0.2867
     52  CB       -33.6280  -62.0700  -61.3380 C.3   358  MET358      0.0387
     53  CG       -35.0840  -61.9340  -61.8880 C.3   358  MET358      0.0595
     54  SD       -36.3070  -61.6520  -60.4500 S.3   358  MET358     -0.1393
     55  CE       -35.6140  -62.7630  -59.2210 C.3   358  MET358      0.0692
     56  N        -41.6860  -52.6750  -57.3400 N.3   376  PHE376     -0.1241
     57  CA       -40.9770  -53.3060  -56.2240 C.3   376  PHE376      0.1605
     58  C        -41.0040  -52.4780  -54.9490 C.2   376  PHE376      0.2264
     59  O        -40.0800  -52.5560  -54.1330 O.2   376  PHE376     -0.2867
     60  CB       -39.5130  -53.5440  -56.5860 C.3   376  PHE376      0.0534
     61  CG       -39.2960  -54.7170  -57.4860 C.ar  376  PHE376     -0.0203
     62  CD1      -40.2770  -55.1180  -58.3740 C.ar  376  PHE376     -0.0042
     63  CD2      -38.0790  -55.3920  -57.4770 C.ar  376  PHE376     -0.0042
     64  CE1      -40.0550  -56.1610  -59.2450 C.ar  376  PHE376     -0.0003
     65  CE2      -37.8390  -56.4480  -58.3500 C.ar  376  PHE376     -0.0003
     66  CZ       -38.8340  -56.8300  -59.2390 C.ar  376  PHE376     -0.0000
     67  N        -43.5950  -52.3260  -52.3600 N.3   378  TYR378     -0.1227
     68  CA       -44.0720  -53.1140  -51.2450 C.3   378  TYR378      0.1736
     69  C        -42.8550  -53.8000  -50.6910 C.2   378  TYR378      0.2595
     70  O        -42.6570  -53.8570  -49.4960 O.2   378  TYR378     -0.2718
     71  CB       -45.0780  -54.1460  -51.7430 C.3   378  TYR378      0.0548
     72  CG       -44.4730  -55.1770  -52.6780 C.ar  378  TYR378     -0.0200
     73  CD1      -44.2950  -56.5110  -52.2760 C.ar  378  TYR378     -0.0009
     74  CD2      -44.0700  -54.8240  -53.9600 C.ar  378  TYR378     -0.0009
     75  CE1      -43.7360  -57.4600  -53.1370 C.ar  378  TYR378      0.0417
     76  CE2      -43.5110  -55.7680  -54.8280 C.ar  378  TYR378      0.0417
     77  CZ       -43.3510  -57.0790  -54.4190 C.ar  378  TYR378      0.1957
     78  OH       -42.8420  -58.0010  -55.3130 O.3   378  TYR378     -0.2866
     79  N        -42.0330  -54.2780  -51.6100 N.am  379  GLN379     -0.1979
     80  CA       -40.8190  -54.9860  -51.3050 C.3   379  GLN379      0.1601
     81  C        -39.8900  -54.1970  -50.4290 C.2   379  GLN379      0.2287
     82  O        -39.1820  -54.7520  -49.5880 O.2   379  GLN379     -0.2864
     83  CB       -40.1190  -55.3420  -52.6000 C.3   379  GLN379      0.0394
     84  CG       -40.4990  -56.6900  -53.1260 C.3   379  GLN379      0.0908
     85  CD       -39.5550  -57.1510  -54.1930 C.2   379  GLN379      0.2608
     86  OE1      -38.3440  -56.8850  -54.1310 O.2   379  GLN379     -0.2717
     87  NE2      -40.0920  -57.8510  -55.1960 N.am  379  GLN379     -0.0878
     88  N        -41.4570  -53.6620  -46.8660 N.3   382  PHE382     -0.1241
     89  CA       -41.1580  -54.8430  -46.0900 C.3   382  PHE382      0.1605
     90  C        -39.8540  -54.7070  -45.3600 C.2   382  PHE382      0.2264
     91  O        -39.8140  -54.8860  -44.1530 O.2   382  PHE382     -0.2867
     92  CB       -41.1190  -56.0690  -46.9990 C.3   382  PHE382      0.0534
     93  CG       -42.4840  -56.5640  -47.4100 C.ar  382  PHE382     -0.0203
     94  CD1      -43.6420  -55.9520  -46.9280 C.ar  382  PHE382     -0.0042
     95  CD2      -42.6170  -57.5840  -48.3220 C.ar  382  PHE382     -0.0042
     96  CE1      -44.9170  -56.3580  -47.3670 C.ar  382  PHE382     -0.0003
     97  CE2      -43.8760  -57.9830  -48.7600 C.ar  382  PHE382     -0.0003
     98  CZ       -45.0280  -57.3670  -48.2810 C.ar  382  PHE382     -0.0000
     99  N        -54.5770  -60.4170  -50.6550 N.3   403  PHE403     -0.1241
    100  CA       -53.4560  -60.9770  -51.3870 C.3   403  PHE403      0.1605
    101  C        -53.8880  -61.8700  -52.5100 C.2   403  PHE403      0.2264
    102  O        -53.4940  -61.6450  -53.6600 O.2   403  PHE403     -0.2867
    103  CB       -52.6080  -61.7990  -50.4820 C.3   403  PHE403      0.0534
    104  CG       -51.5140  -61.0430  -49.8640 C.ar  403  PHE403     -0.0203
    105  CD1      -51.6910  -60.4470  -48.6310 C.ar  403  PHE403     -0.0042
    106  CD2      -50.2710  -60.9670  -50.4760 C.ar  403  PHE403     -0.0042
    107  CE1      -50.6300  -59.7870  -48.0140 C.ar  403  PHE403     -0.0003
    108  CE2      -49.1940  -60.3050  -49.8600 C.ar  403  PHE403     -0.0003
    109  CZ       -49.3720  -59.7220  -48.6400 C.ar  403  PHE403     -0.0000
    110  N        -56.7350  -55.5340  -55.2380 N.3   412  PHE412     -0.1227
    111  CA       -55.4470  -56.1900  -55.0400 C.3   412  PHE412      0.1736
    112  C        -54.5640  -55.5290  -53.9560 C.2   412  PHE412      0.2595
    113  O        -55.0610  -54.9330  -52.9880 O.2   412  PHE412     -0.2718
    114  CB       -54.6870  -56.3190  -56.3860 C.3   412  PHE412      0.0547
    115  CG       -54.0030  -57.6860  -56.5910 C.ar  412  PHE412     -0.0202
    116  CD1      -52.7960  -58.0010  -55.9190 C.ar  412  PHE412     -0.0042
    117  CD2      -54.5590  -58.6510  -57.4590 C.ar  412  PHE412     -0.0042
    118  CE1      -52.1500  -59.2520  -56.1020 C.ar  412  PHE412     -0.0003
    119  CE2      -53.9260  -59.9030  -57.6530 C.ar  412  PHE412     -0.0003
    120  CZ       -52.7200  -60.2020  -56.9720 C.ar  412  PHE412     -0.0000
    121  N        -53.2510  -55.6680  -54.1170 N.am  413  ILE413     -0.1980
    122  CA       -52.2780  -55.1310  -53.1700 C.3   413  ILE413      0.1595
    123  C        -51.7010  -53.8010  -53.7200 C.2   413  ILE413      0.2287
    124  O        -51.9960  -53.4270  -54.8540 O.2   413  ILE413     -0.2864
    125  CB       -51.1650  -56.2300  -52.9010 C.3   413  ILE413      0.0276
    126  CG1      -51.3990  -56.8960  -51.5450 C.3   413  ILE413      0.0022
    127  CG2      -49.7660  -55.6300  -52.9840 C.3   413  ILE413      0.0022
    128  CD1      -52.8440  -57.2320  -51.2520 C.3   413  ILE413      0.0001
    129  N        -48.5090  -52.8160  -54.4720 N.3   415  VAL415     -0.1245
    130  CA       -47.1250  -53.0710  -54.8360 C.3   415  VAL415      0.1561
    131  C        -46.1840  -51.8700  -54.6980 C.2   415  VAL415      0.2260
    132  O        -45.2240  -51.9330  -53.9250 O.2   415  VAL415     -0.2867
    133  CB       -47.0420  -53.5810  -56.2760 C.3   415  VAL415      0.0252
    134  CG1      -46.3740  -54.9270  -56.3130 C.3   415  VAL415      0.0019
    135  CG2      -48.4300  -53.7010  -56.8460 C.3   415  VAL415      0.0019
    136  N        -37.2880  -61.4260  -47.6980 N.3   462  TYR462     -0.1241
    137  CA       -37.0100  -60.1700  -48.3830 C.3   462  TYR462      0.1605
    138  C        -35.6920  -59.6270  -47.8420 C.2   462  TYR462      0.2264
    139  O        -34.6970  -59.4820  -48.5580 O.2   462  TYR462     -0.2867
    140  CB       -38.1450  -59.1870  -48.0710 C.3   462  TYR462      0.0534
    141  CG       -39.4190  -59.5610  -48.7730 C.ar  462  TYR462     -0.0201
    142  CD1      -39.5680  -59.3340  -50.1480 C.ar  462  TYR462     -0.0009
    143  CD2      -40.4230  -60.2560  -48.1110 C.ar  462  TYR462     -0.0009
    144  CE1      -40.6850  -59.8040  -50.8540 C.ar  462  TYR462      0.0417
    145  CE2      -41.5500  -60.7370  -48.8060 C.ar  462  TYR462      0.0417
    146  CZ       -41.6660  -60.5070  -50.1740 C.ar  462  TYR462      0.1957
    147  OH       -42.7540  -60.9860  -50.8600 O.3   462  TYR462     -0.2866
    148  N        -48.5330  -59.0150  -62.2800 N.3   493  ILE493     -0.1231
    149  CA       -48.2080  -57.6210  -62.0640 C.3   493  ILE493      0.1692
    150  C        -46.7430  -57.3480  -61.7480 C.2   493  ILE493      0.2592
    151  O        -46.1410  -56.4790  -62.3530 O.2   493  ILE493     -0.2718
    152  CB       -49.1460  -57.0730  -61.0050 C.3   493  ILE493      0.0266
    153  CG1      -50.5700  -57.6690  -61.2270 C.3   493  ILE493      0.0019
    154  CG2      -49.1550  -55.5480  -61.0700 C.3   493  ILE493      0.0020
    155  CD1      -50.8270  -59.1640  -60.6810 C.3   493  ILE493      0.0001
    156  N        -46.1600  -58.0530  -60.7930 N.am  494  VAL494     -0.1966
    157  CA       -44.7270  -57.8670  -60.5280 C.3   494  VAL494      0.1727
    158  C        -44.2890  -59.2300  -60.9700 C.2   494  VAL494      0.2616
    159  O        -45.0810  -60.1650  -60.8400 O.2   494  VAL494     -0.2715
    160  CB       -44.3800  -57.6630  -59.0100 C.3   494  VAL494      0.0290
    161  CG1      -45.5190  -58.1550  -58.0900 C.3   494  VAL494      0.0023
    162  CG2      -43.0740  -58.3480  -58.6980 C.3   494  VAL494      0.0023
    163  N        -43.0720  -59.3850  -61.4900 N.am  495  LEU495     -0.1977
    164  CA       -42.6380  -60.7220  -61.9840 C.3   495  LEU495      0.1596
    165  C        -43.3160  -61.0450  -63.3290 C.2   495  LEU495      0.2287
    166  O        -43.6520  -62.1850  -63.6550 O.2   495  LEU495     -0.2864
    167  CB       -42.9750  -61.8400  -60.9700 C.3   495  LEU495      0.0297
    168  CG       -42.1150  -61.9010  -59.7110 C.3   495  LEU495      0.0022
    169  CD1      -42.8040  -62.7470  -58.6570 C.3   495  LEU495      0.0001
    170  CD2      -40.7420  -62.4390  -60.0770 C.3   495  LEU495      0.0001
    171  N        -50.6790  -63.8240  -59.9890 N.3   520  HIS520     -0.1226
    172  CA       -49.4110  -64.2370  -59.4100 C.3   520  HIS520      0.1752
    173  C        -49.6800  -65.5870  -58.7930 C.2   520  HIS520      0.2596
    174  O        -48.7580  -66.3870  -58.5590 O.2   520  HIS520     -0.2718
    175  CB       -48.9940  -63.2890  -58.3090 C.3   520  HIS520      0.0759
    176  CG       -47.8630  -63.8020  -57.4800 C.ar  520  HIS520      0.0818
    177  ND1      -46.6930  -64.2790  -58.0360 N.ar  520  HIS520     -0.2268
    178  CD2      -47.7180  -63.9080  -56.1380 C.ar  520  HIS520      0.1154
    179  CE1      -45.8740  -64.6550  -57.0680 C.ar  520  HIS520      0.1986
    180  NE2      -46.4720  -64.4410  -55.9090 N.ar  520  HIS520     -0.2212
    181  N        -50.9690  -65.8130  -58.5390 N.am  521  TRP521     -0.1976
    182  CA       -51.4810  -67.0460  -57.9470 C.3   521  TRP521      0.1640
    183  C        -51.7690  -68.0880  -59.0230 C.2   521  TRP521      0.2290
    184  O        -52.9100  -68.4550  -59.2600 O.2   521  TRP521     -0.2864
    185  CB       -52.7300  -66.6780  -57.1950 C.3   521  TRP521      0.0576
    186  CG       -52.4580  -65.4950  -56.3340 C.ar  521  TRP521      0.0006
    187  CD1      -53.2620  -64.4150  -56.1570 C.ar  521  TRP521      0.0946
    188  CD2      -51.3290  -65.3110  -55.4510 C.ar  521  TRP521      0.0152
    189  NE1      -52.7140  -63.5760  -55.2130 N.ar  521  TRP521     -0.2442
    190  CE2      -51.5300  -64.1060  -54.7670 C.ar  521  TRP521      0.0810
    191  CE3      -50.1780  -66.0570  -55.1740 C.ar  521  TRP521      0.0012
    192  CZ2      -50.6260  -63.6240  -53.8260 C.ar  521  TRP521      0.0191
    193  CZ3      -49.2820  -65.5770  -54.2300 C.ar  521  TRP521      0.0001
    194  CH2      -49.5130  -64.3760  -53.5720 C.ar  521  TRP521      0.0015
@<TRIPOS>BOND
     1   166   165    2
     2   165   164    1
     3    44    43    2
     4   151   150    2
     5   148   149    1
     6    43    42    1
     7    48    49    1
     8    49    50    1
     9    49    52    1
    10   149   150    1
    11   149   152    1
    12   164   163    1
    13   164   167    1
    14    53    52    1
    15    53    54    1
    16   150   156   am
    17   163   158   am
    18    50    51    2
    19    41    42    1
    20   153   152    1
    21   153   155    1
    22    42    45    1
    23   154   152    1
    24   158   159    2
    25   158   157    1
    26   167   168    1
    27   156   157    1
    28   157   160    1
    29    54    55    1
    30   170   168    1
    31   171   172    1
    32    45    47    1
    33    45    46    1
    34   168   169    1
    35   172   173    1
    36   172   175    1
    37   184   183    2
    38    64    66   ar
    39    64    62   ar
    40    66    65   ar
    41   183   182    1
    42   160   162    1
    43   160   161    1
    44   173   174    2
    45   173   181   am
    46   181   182    1
    47    62    61   ar
    48    65    63   ar
    49   175   176    1
    50   177   176   ar
    51   177   179   ar
    52   182   185    1
    53   119   117   ar
    54   119   120   ar
    55    61    63   ar
    56    61    60    1
    57   176   178   ar
    58   117   115   ar
    59    56    57    1
    60   185   186    1
    61    12    13    1
    62   179   180   ar
    63   120   118   ar
    64    34    35    1
    65   135   133    1
    66    37    36    2
    67    35    36    1
    68    35    38    1
    69   115   114    1
    70   115   116   ar
    71    60    57    1
    72   114   111    1
    73   186   187   ar
    74   186   188   ar
    75   134   133    1
    76    40    38    1
    77    15    14    2
    78   133   130    1
    79    13    14    1
    80    13    16    1
    81    57    58    1
    82   187   189   ar
    83   178   180   ar
    84   118   116   ar
    85    38    39    1
    86    14    20   am
    87   188   191   ar
    88   188   190   ar
    89    78    77    1
    90   110   111    1
    91   189   190   ar
    92    87    85   am
    93   191   193   ar
    94    16    17    1
    95   111   112    1
    96    58    59    2
    97   124   123    2
    98   130   131    1
    99   130   129    1
   100    76    77   ar
   101    76    74   ar
   102   190   192   ar
   103   131   132    2
   104    17    18   ar
   105    17    19   ar
   106    77    75   ar
   107    20    21    1
   108   193   194   ar
   109    85    86    2
   110    85    84    1
   111   121   112   am
   112   121   122    1
   113    74    72   ar
   114   112   113    2
   115   192   194   ar
   116    21    22    1
   117    21    24    1
   118   123   122    1
   119    22    23    2
   120   102   101    2
   121   122   125    1
   122    75    73   ar
   123    84    83    1
   124   127   125    1
   125   125   126    1
   126    72    73   ar
   127    72    71    1
   128    83    80    1
   129   101   100    1
   130    30    32   ar
   131    30    27   ar
   132    67    68    1
   133    24    25    1
   134    32    33   ar
   135    27    25   ar
   136    27    29   ar
   137    25    26   ar
   138    33    31   ar
   139     4     3    2
   140    71    68    1
   141    79    80    1
   142    79    69   am
   143    29    31   ar
   144    29    28   ar
   145    26    28   ar
   146   126   128    1
   147   100    99    1
   148   100   103    1
   149    80    81    1
   150    68    69    1
   151     1     2    1
   152   147   146    1
   153   144   146   ar
   154   144   142   ar
   155    69    70    2
   156     3     2    1
   157   103   104    1
   158   106   104   ar
   159   106   108   ar
   160    81    82    2
   161     2     5    1
   162   146   145   ar
   163   142   141   ar
   164   104   105   ar
   165   108   109   ar
   166     5     6    1
   167     7     6   ar
   168     7     9   ar
   169     6     8   ar
   170   145   143   ar
   171   141   143   ar
   172   141   140    1
   173    97    95   ar
   174    97    98   ar
   175   109   107   ar
   176   105   107   ar
   177   139   138    2
   178     9    11   ar
   179   137   140    1
   180   137   138    1
   181   137   136    1
   182    95    93   ar
   183    98    96   ar
   184     8    10   ar
   185    93    92    1
   186    93    94   ar
   187    96    94   ar
   188    11    10   ar
   189    92    89    1
   190    88    89    1
   191    89    90    1
   192    90    91    2
