@<TRIPOS>MOLECULE
tmp/1ek2A00.pdb
 263 259 0 0 0
SMALL
GASTEIGER

@<TRIPOS>ATOM
      1  N        -43.2010 -108.3780  -31.5980 N.3   208  PHE208     -0.1241
      2  CA       -43.3570 -108.2060  -30.1570 C.3   208  PHE208      0.1605
      3  C        -42.1850 -108.6550  -29.2920 C.2   208  PHE208      0.2264
      4  O        -41.6490 -109.7450  -29.4600 O.2   208  PHE208     -0.2867
      5  CB       -44.6090 -108.9350  -29.6700 C.3   208  PHE208      0.0534
      6  CG       -44.8660 -108.7770  -28.1950 C.ar  208  PHE208     -0.0203
      7  CD1      -45.9500 -108.0290  -27.7430 C.ar  208  PHE208     -0.0042
      8  CD2      -44.0150 -109.3550  -27.2600 C.ar  208  PHE208     -0.0042
      9  CE1      -46.1780 -107.8590  -26.3840 C.ar  208  PHE208     -0.0003
     10  CE2      -44.2330 -109.1900  -25.9050 C.ar  208  PHE208     -0.0003
     11  CZ       -45.3160 -108.4410  -25.4630 C.ar  208  PHE208     -0.0000
     12  N        -41.6940 -111.7630  -36.7660 N.3   276  ASP276     -0.1225
     13  CA       -42.5390 -112.0270  -35.6050 C.3   276  ASP276      0.1805
     14  C        -44.0150 -111.8680  -35.9570 C.2   276  ASP276      0.2597
     15  O        -44.4610 -112.2690  -37.0400 O.2   276  ASP276     -0.2718
     16  CB       -42.1800 -111.0590  -34.4820 C.3   276  ASP276      0.1424
     17  CG       -42.4380 -111.6320  -33.1190 C.2   276  ASP276      0.3668
     18  OD1      -41.5530 -111.4990  -32.2490 O.co2 276  ASP276     -0.2456
     19  OD2      -43.5260 -112.2080  -32.9180 O.co2 276  ASP276     -0.2456
     20  N        -44.7670 -111.2780  -35.0360 N.am  277  TRP277     -0.1976
     21  CA       -46.1920 -111.0530  -35.2320 C.3   277  TRP277      0.1640
     22  C        -46.4260 -110.3710  -36.5740 C.2   277  TRP277      0.2290
     23  O        -47.3430 -110.7230  -37.3240 O.2   277  TRP277     -0.2864
     24  CB       -46.7280 -110.1650  -34.1130 C.3   277  TRP277      0.0576
     25  CG       -47.3400 -110.9060  -32.9690 C.ar  277  TRP277      0.0006
     26  CD1      -46.9160 -110.9110  -31.6630 C.ar  277  TRP277      0.0946
     27  CD2      -48.5090 -111.7210  -33.0140 C.ar  277  TRP277      0.0152
     28  NE1      -47.7560 -111.6810  -30.8950 N.ar  277  TRP277     -0.2442
     29  CE2      -48.7430 -112.1910  -31.6990 C.ar  277  TRP277      0.0810
     30  CE3      -49.3830 -112.1020  -34.0380 C.ar  277  TRP277      0.0012
     31  CZ2      -49.8220 -113.0250  -31.3820 C.ar  277  TRP277      0.0191
     32  CZ3      -50.4490 -112.9260  -33.7250 C.ar  277  TRP277      0.0001
     33  CH2      -50.6610 -113.3800  -32.4020 C.ar  277  TRP277      0.0015
     34  N        -46.5470 -112.4670  -39.4750 N.3   280  VAL280     -0.1245
     35  CA       -47.8520 -113.0990  -39.6290 C.3   280  VAL280      0.1561
     36  C        -48.6940 -112.2180  -40.5470 C.2   280  VAL280      0.2260
     37  O        -49.1600 -112.6550  -41.6080 O.2   280  VAL280     -0.2867
     38  CB       -48.5790 -113.2220  -38.2760 C.3   280  VAL280      0.0252
     39  CG1      -49.9890 -113.7430  -38.4870 C.3   280  VAL280      0.0019
     40  CG2      -47.7930 -114.1220  -37.3490 C.3   280  VAL280      0.0019
     41  N        -40.9730 -116.1060  -38.4930 N.3   301  THR301     -0.1218
     42  CA       -42.3920 -116.3920  -38.6710 C.3   301  THR301      0.1862
     43  C        -42.7360 -117.0930  -39.9920 C.2   301  THR301      0.2287
     44  O        -42.5280 -116.5490  -41.0750 O.2   301  THR301     -0.2866
     45  CB       -43.2290 -115.0990  -38.5660 C.3   301  THR301      0.1770
     46  OG1      -42.8090 -114.3480  -37.4210 O.3   301  THR301     -0.2211
     47  CG2      -44.7020 -115.4300  -38.4350 C.3   301  THR301      0.0375
     48  N        -48.4470 -120.2660  -41.3000 N.3   304  MET304     -0.1231
     49  CA       -49.1930 -121.3650  -40.6990 C.3   304  MET304      0.1687
     50  C        -50.7150 -121.2270  -40.8240 C.2   304  MET304      0.2434
     51  O        -51.3880 -120.8140  -39.8820 O.2   304  MET304     -0.2733
     52  CB       -48.8010 -121.5070  -39.2210 C.3   304  MET304      0.0400
     53  CG       -48.4410 -120.1890  -38.5320 C.3   304  MET304      0.0596
     54  SD       -47.0450 -120.3170  -37.3780 S.3   304  MET304     -0.1393
     55  CE       -47.6430 -121.6100  -36.2460 C.3   304  MET304      0.0692
     56  N        -51.2760 -121.5700  -41.9930 N.am  305  PRO305     -0.2718
     57  CA       -52.7260 -121.4530  -42.1390 C.3   305  PRO305      0.1520
     58  C        -53.4220 -122.1440  -40.9830 C.2   305  PRO305      0.2440
     59  O        -52.8520 -123.0280  -40.3450 O.2   305  PRO305     -0.2731
     60  CB       -53.0100 -122.1220  -43.4770 C.3   305  PRO305      0.0310
     61  CG       -51.7460 -121.9610  -44.2390 C.3   305  PRO305      0.0237
     62  CD       -50.6350 -122.0500  -43.2280 C.3   305  PRO305      0.0939
     63  N        -54.6710 -121.7600  -40.7060 N.am  306  PRO306     -0.2716
     64  CA       -55.4360 -122.3460  -39.6090 C.3   306  PRO306      0.1536
     65  C        -56.1790 -123.6170  -39.9760 C.2   306  PRO306      0.2598
     66  O        -56.6300 -123.7750  -41.1130 O.2   306  PRO306     -0.2715
     67  CB       -56.3970 -121.2350  -39.2370 C.3   306  PRO306      0.0310
     68  CG       -56.7180 -120.6140  -40.5670 C.3   306  PRO306      0.0237
     69  CD       -55.4630 -120.7460  -41.4230 C.3   306  PRO306      0.0939
     70  N        -56.3060 -124.5090  -38.9950 N.am  307  ASP307     -0.1972
     71  CA       -57.0240 -125.7670  -39.1650 C.3   307  ASP307      0.1709
     72  C        -58.5120 -125.4750  -38.9900 C.2   307  ASP307      0.2293
     73  O        -58.9440 -124.9770  -37.9540 O.2   307  ASP307     -0.2864
     74  CB       -56.5650 -126.7740  -38.1220 C.3   307  ASP307      0.1436
     75  CG       -56.0650 -128.0550  -38.7410 C.2   307  ASP307      0.3671
     76  OD1      -54.8790 -128.0970  -39.1450 O.co2 307  ASP307     -0.2456
     77  OD2      -56.8590 -129.0170  -38.8240 O.co2 307  ASP307     -0.2456
     78  N        -60.0860 -127.5210  -36.0960 N.3   310  VAL310     -0.1245
     79  CA       -59.2490 -127.5680  -34.9140 C.3   310  VAL310      0.1561
     80  C        -59.2110 -126.2260  -34.1990 C.2   310  VAL310      0.2260
     81  O        -58.4400 -125.3370  -34.5770 O.2   310  VAL310     -0.2867
     82  CB       -57.8070 -127.9880  -35.2920 C.3   310  VAL310      0.0252
     83  CG1      -56.9570 -128.1600  -34.0380 C.3   310  VAL310      0.0019
     84  CG2      -57.8380 -129.2740  -36.1080 C.3   310  VAL310      0.0019
     85  N        -58.4770 -123.0500  -32.7140 N.3   312  PRO312     -0.2116
     86  CA       -57.1750 -122.3770  -32.7020 C.3   312  PRO312      0.1372
     87  C        -56.5610 -122.3350  -31.3140 C.2   312  PRO312      0.2244
     88  O        -55.3450 -122.4190  -31.1490 O.2   312  PRO312     -0.2868
     89  CB       -57.4970 -120.9750  -33.2200 C.3   312  PRO312      0.0268
     90  CG       -58.9550 -120.7890  -32.8900 C.3   312  PRO312      0.0207
     91  CD       -59.5490 -122.1400  -33.1550 C.3   312  PRO312      0.0892
     92  N        -54.8970 -125.6020  -30.2320 N.3   315  VAL315     -0.1231
     93  CA       -53.5630 -125.7380  -30.7970 C.3   315  VAL315      0.1692
     94  C        -52.5260 -124.9830  -29.9660 C.2   315  VAL315      0.2591
     95  O        -51.3270 -125.2120  -30.1080 O.2   315  VAL315     -0.2718
     96  CB       -53.5300 -125.2490  -32.2700 C.3   315  VAL315      0.0266
     97  CG1      -54.9520 -125.0450  -32.7750 C.3   315  VAL315      0.0020
     98  CG2      -52.7310 -123.9580  -32.3950 C.3   315  VAL315      0.0020
     99  N        -52.9880 -124.0850  -29.1000 N.am  316  ILE316     -0.1980
    100  CA       -52.0790 -123.3240  -28.2460 C.3   316  ILE316      0.1595
    101  C        -51.9410 -124.0540  -26.9230 C.2   316  ILE316      0.2287
    102  O        -50.8350 -124.1870  -26.3860 O.2   316  ILE316     -0.2864
    103  CB       -52.6080 -121.9100  -27.9470 C.3   316  ILE316      0.0276
    104  CG1      -53.2690 -121.3190  -29.1980 C.3   316  ILE316      0.0022
    105  CG2      -51.4710 -121.0370  -27.4210 C.3   316  ILE316      0.0022
    106  CD1      -52.4020 -121.3400  -30.4500 C.3   316  ILE316      0.0001
    107  N        -45.6620 -122.5090  -25.9370 N.3   322  PHE322     -0.1241
    108  CA       -46.5630 -121.3820  -26.1610 C.3   322  PHE322      0.1605
    109  C        -47.2880 -121.0110  -24.8710 C.2   322  PHE322      0.2264
    110  O        -48.2980 -120.3010  -24.8860 O.2   322  PHE322     -0.2867
    111  CB       -47.6030 -121.7220  -27.2340 C.3   322  PHE322      0.0534
    112  CG       -47.0690 -121.7030  -28.6410 C.ar  322  PHE322     -0.0203
    113  CD1      -45.7090 -121.8180  -28.8940 C.ar  322  PHE322     -0.0042
    114  CD2      -47.9390 -121.6110  -29.7170 C.ar  322  PHE322     -0.0042
    115  CE1      -45.2230 -121.8480  -30.1910 C.ar  322  PHE322     -0.0003
    116  CE2      -47.4620 -121.6400  -31.0220 C.ar  322  PHE322     -0.0003
    117  CZ       -46.1000 -121.7590  -31.2580 C.ar  322  PHE322     -0.0000
    118  N        -46.2510 -119.1030  -22.1190 N.3   324  TYR324     -0.1227
    119  CA       -46.1480 -117.6610  -21.8880 C.3   324  TYR324      0.1736
    120  C        -47.2270 -116.9840  -22.6980 C.2   324  TYR324      0.2595
    121  O        -47.9540 -116.1190  -22.2150 O.2   324  TYR324     -0.2718
    122  CB       -44.7910 -117.1460  -22.3750 C.3   324  TYR324      0.0548
    123  CG       -44.7260 -117.1600  -23.8780 C.ar  324  TYR324     -0.0200
    124  CD1      -44.9550 -116.0030  -24.6200 C.ar  324  TYR324     -0.0009
    125  CD2      -44.5850 -118.3620  -24.5660 C.ar  324  TYR324     -0.0009
    126  CE1      -45.0620 -116.0460  -26.0070 C.ar  324  TYR324      0.0417
    127  CE2      -44.6900 -118.4170  -25.9480 C.ar  324  TYR324      0.0417
    128  CZ       -44.9340 -117.2600  -26.6630 C.ar  324  TYR324      0.1957
    129  OH       -45.0820 -117.3300  -28.0290 O.3   324  TYR324     -0.2866
    130  N        -47.3090 -117.3980  -23.9510 N.am  325  GLN325     -0.1979
    131  CA       -48.2690 -116.8510  -24.8580 C.3   325  GLN325      0.1601
    132  C        -49.6190 -116.9060  -24.1500 C.2   325  GLN325      0.2287
    133  O        -50.3140 -115.9000  -24.0630 O.2   325  GLN325     -0.2864
    134  CB       -48.2370 -117.6560  -26.1630 C.3   325  GLN325      0.0394
    135  CG       -49.1390 -117.1410  -27.2300 C.3   325  GLN325      0.0908
    136  CD       -48.3660 -116.8810  -28.5120 C.2   325  GLN325      0.2608
    137  OE1      -48.5260 -117.5860  -29.5240 O.2   325  GLN325     -0.2717
    138  NE2      -47.4880 -115.8800  -28.4700 N.am  325  GLN325     -0.0878
    139  N        -50.2020 -114.4540  -21.5110 N.3   328  PHE328     -0.1241
    140  CA       -50.5610 -113.1500  -22.0460 C.3   328  PHE328      0.1605
    141  C        -52.0630 -112.9600  -22.2050 C.2   328  PHE328      0.2264
    142  O        -52.5820 -111.8490  -22.0650 O.2   328  PHE328     -0.2867
    143  CB       -49.9030 -112.9450  -23.4040 C.3   328  PHE328      0.0534
    144  CG       -48.4220 -112.8010  -23.3380 C.ar  328  PHE328     -0.0203
    145  CD1      -47.8030 -112.3630  -22.1720 C.ar  328  PHE328     -0.0042
    146  CD2      -47.6370 -113.1020  -24.4480 C.ar  328  PHE328     -0.0042
    147  CE1      -46.4280 -112.2260  -22.1090 C.ar  328  PHE328     -0.0003
    148  CE2      -46.2580 -112.9680  -24.4000 C.ar  328  PHE328     -0.0003
    149  CZ       -45.6470 -112.5290  -23.2260 C.ar  328  PHE328     -0.0000
    150  N        -35.9440 -109.9170  -22.5040 N.3   349  PHE349     -0.1241
    151  CA       -36.4700 -110.3550  -23.7980 C.3   349  PHE349      0.1605
    152  C        -35.3580 -110.4570  -24.8240 C.2   349  PHE349      0.2264
    153  O        -35.1790 -111.4890  -25.4670 O.2   349  PHE349     -0.2867
    154  CB       -37.4930 -109.3530  -24.3300 C.3   349  PHE349      0.0534
    155  CG       -38.9050 -109.6360  -23.9150 C.ar  349  PHE349     -0.0203
    156  CD1      -39.6910 -110.5160  -24.6400 C.ar  349  PHE349     -0.0042
    157  CD2      -39.4660 -108.9910  -22.8210 C.ar  349  PHE349     -0.0042
    158  CE1      -41.0270 -110.7510  -24.2840 C.ar  349  PHE349     -0.0003
    159  CE2      -40.7930 -109.2160  -22.4540 C.ar  349  PHE349     -0.0003
    160  CZ       -41.5780 -110.0970  -23.1880 C.ar  349  PHE349     -0.0000
    161  N        -36.1450 -116.1990  -21.3400 N.3   359  ILE359     -0.1245
    162  CA       -37.5200 -115.9660  -20.9200 C.3   359  ILE359      0.1561
    163  C        -38.1260 -117.3340  -20.5840 C.2   359  ILE359      0.2260
    164  O        -37.5750 -118.3640  -20.9730 O.2   359  ILE359     -0.2867
    165  CB       -38.3190 -115.2480  -22.0600 C.3   359  ILE359      0.0252
    166  CG1      -38.4920 -113.7740  -21.7150 C.3   359  ILE359      0.0019
    167  CG2      -39.6820 -115.8740  -22.2600 C.3   359  ILE359      0.0019
    168  CD1      -37.1990 -113.0880  -21.3340 C.3   359  ILE359      0.0001
    169  N        -40.8220 -119.0520  -21.6450 N.3   361  VAL361     -0.1245
    170  CA       -41.8500 -119.3100  -22.6410 C.3   361  VAL361      0.1561
    171  C        -42.8410 -120.4560  -22.3460 C.2   361  VAL361      0.2260
    172  O        -44.0020 -120.3770  -22.7560 O.2   361  VAL361     -0.2867
    173  CB       -41.1890 -119.5100  -24.0310 C.3   361  VAL361      0.0252
    174  CG1      -39.7950 -120.0850  -23.8600 C.3   361  VAL361      0.0019
    175  CG2      -42.0310 -120.4060  -24.8960 C.3   361  VAL361      0.0019
    176  N        -43.8120 -114.9440  -17.3670 N.3   370  ILE370     -0.1245
    177  CA       -42.7310 -115.0130  -18.3340 C.3   370  ILE370      0.1561
    178  C        -41.3650 -114.5100  -17.8410 C.2   370  ILE370      0.2260
    179  O        -40.3450 -114.6540  -18.5280 O.2   370  ILE370     -0.2867
    180  CB       -43.1290 -114.2280  -19.5850 C.3   370  ILE370      0.0252
    181  CG1      -42.1910 -114.5740  -20.7340 C.3   370  ILE370      0.0019
    182  CG2      -43.1260 -112.7340  -19.2810 C.3   370  ILE370      0.0019
    183  CD1      -42.8390 -114.4650  -22.0820 C.3   370  ILE370      0.0001
    184  N        -51.8540 -110.7240  -29.2860 N.3   408  TYR408     -0.1241
    185  CA       -52.0380 -112.1200  -28.9190 C.3   408  TYR408      0.1605
    186  C        -53.5160 -112.4420  -28.7290 C.2   408  TYR408      0.2264
    187  O        -54.0340 -113.4340  -29.2600 O.2   408  TYR408     -0.2867
    188  CB       -51.2970 -112.4100  -27.6040 C.3   408  TYR408      0.0534
    189  CG       -49.7870 -112.3720  -27.7030 C.ar  408  TYR408     -0.0201
    190  CD1      -49.0520 -111.3370  -27.1310 C.ar  408  TYR408     -0.0009
    191  CD2      -49.0930 -113.3750  -28.3600 C.ar  408  TYR408     -0.0009
    192  CE1      -47.6600 -111.3110  -27.2130 C.ar  408  TYR408      0.0417
    193  CE2      -47.7110 -113.3540  -28.4480 C.ar  408  TYR408      0.0417
    194  CZ       -47.0020 -112.3300  -27.8750 C.ar  408  TYR408      0.1957
    195  OH       -45.6300 -112.3460  -27.9540 O.3   408  TYR408     -0.2866
    196  N        -57.1280 -114.4380  -31.0700 N.3   411  THR411     -0.1218
    197  CA       -57.0930 -115.8180  -31.5610 C.3   411  THR411      0.1862
    198  C        -58.2850 -116.3890  -32.3250 C.2   411  THR411      0.2287
    199  O        -58.1220 -116.9090  -33.4250 O.2   411  THR411     -0.2866
    200  CB       -56.7970 -116.7770  -30.3920 C.3   411  THR411      0.1770
    201  OG1      -55.9240 -116.1260  -29.4530 O.3   411  THR411     -0.2211
    202  CG2      -56.1490 -118.0650  -30.9050 C.3   411  THR411      0.0375
    203  N        -59.0250 -114.1690  -35.4650 N.3   414  ASN414     -0.1225
    204  CA       -57.9610 -114.4030  -36.4340 C.3   414  ASN414      0.1785
    205  C        -58.2440 -115.7100  -37.1670 C.2   414  ASN414      0.2597
    206  O        -58.3160 -115.7450  -38.3940 O.2   414  ASN414     -0.2718
    207  CB       -56.6040 -114.4840  -35.7270 C.3   414  ASN414      0.1169
    208  CG       -56.2140 -113.1770  -35.0690 C.2   414  ASN414      0.2627
    209  OD1      -56.7910 -112.1330  -35.3570 O.2   414  ASN414     -0.2716
    210  ND2      -55.2300 -113.2270  -34.1780 N.am  414  ASN414     -0.0877
    211  N        -58.4190 -116.7790  -36.3990 N.am  415  TRP415     -0.1976
    212  CA       -58.7030 -118.1020  -36.9460 C.3   415  TRP415      0.1640
    213  C        -59.8590 -118.0260  -37.9310 C.2   415  TRP415      0.2290
    214  O        -59.7310 -118.4280  -39.0930 O.2   415  TRP415     -0.2864
    215  CB       -59.0570 -119.0620  -35.8040 C.3   415  TRP415      0.0576
    216  CG       -59.3770 -120.4840  -36.2230 C.ar  415  TRP415      0.0006
    217  CD1      -58.4830 -121.4740  -36.5380 C.ar  415  TRP415      0.0946
    218  CD2      -60.6770 -121.0780  -36.3130 C.ar  415  TRP415      0.0152
    219  NE1      -59.1490 -122.6440  -36.8160 N.ar  415  TRP415     -0.2442
    220  CE2      -60.4960 -122.4290  -36.6850 C.ar  415  TRP415      0.0810
    221  CE3      -61.9800 -120.6000  -36.1140 C.ar  415  TRP415      0.0012
    222  CZ2      -61.5690 -123.3040  -36.8630 C.ar  415  TRP415      0.0191
    223  CZ3      -63.0460 -121.4700  -36.2920 C.ar  415  TRP415      0.0001
    224  CH2      -62.8330 -122.8060  -36.6620 C.ar  415  TRP415      0.0015
    225  N        -38.7650 -120.6670  -29.7790 N.3   440  VAL440     -0.1231
    226  CA       -40.1380 -120.6820  -30.2680 C.3   440  VAL440      0.1692
    227  C        -39.9540 -120.2410  -31.7180 C.2   440  VAL440      0.2591
    228  O        -38.8860 -119.7450  -32.0650 O.2   440  VAL440     -0.2718
    229  CB       -41.0160 -119.6720  -29.5000 C.3   440  VAL440      0.0266
    230  CG1      -40.2100 -118.4290  -29.1700 C.3   440  VAL440      0.0020
    231  CG2      -42.2360 -119.3120  -30.3140 C.3   440  VAL440      0.0020
    232  N        -40.9600 -120.4200  -32.5680 N.am  441  LEU441     -0.1980
    233  CA       -40.8260 -120.0320  -33.9770 C.3   441  LEU441      0.1596
    234  C        -39.6220 -120.7550  -34.6010 C.2   441  LEU441      0.2287
    235  O        -38.8210 -120.1520  -35.3190 O.2   441  LEU441     -0.2864
    236  CB       -40.6230 -118.5130  -34.1100 C.3   441  LEU441      0.0297
    237  CG       -41.8030 -117.5350  -34.0370 C.3   441  LEU441      0.0022
    238  CD1      -41.2990 -116.1560  -34.4150 C.3   441  LEU441      0.0001
    239  CD2      -42.9340 -117.9590  -34.9590 C.3   441  LEU441      0.0001
    240  N        -34.0980 -115.3130  -31.8220 N.3   466  HIS466     -0.1226
    241  CA       -35.3510 -114.7640  -32.3340 C.3   466  HIS466      0.1752
    242  C        -35.1590 -113.3450  -32.8620 C.2   466  HIS466      0.2596
    243  O        -35.8370 -112.9100  -33.7990 O.2   466  HIS466     -0.2718
    244  CB       -36.3940 -114.7290  -31.2340 C.3   466  HIS466      0.0759
    245  CG       -37.6720 -114.0750  -31.6450 C.ar  466  HIS466      0.0818
    246  ND1      -38.4100 -114.4950  -32.7310 N.ar  466  HIS466     -0.2268
    247  CD2      -38.3550 -113.0410  -31.1020 C.ar  466  HIS466      0.1154
    248  CE1      -39.4930 -113.7470  -32.8380 C.ar  466  HIS466      0.1986
    249  NE2      -39.4840 -112.8580  -31.8610 N.ar  466  HIS466     -0.2212
    250  N        -34.2320 -112.6250  -32.2360 N.am  467  TRP467     -0.1976
    251  CA       -33.9230 -111.2580  -32.6170 C.3   467  TRP467      0.1640
    252  C        -32.9140 -111.2640  -33.7590 C.2   467  TRP467      0.2290
    253  O        -31.7540 -110.8830  -33.5940 O.2   467  TRP467     -0.2864
    254  CB       -33.3770 -110.5160  -31.4000 C.3   467  TRP467      0.0576
    255  CG       -34.2180 -110.7430  -30.1770 C.ar  467  TRP467      0.0006
    256  CD1      -33.7990 -111.2190  -28.9740 C.ar  467  TRP467      0.0946
    257  CD2      -35.6240 -110.4800  -30.0380 C.ar  467  TRP467      0.0152
    258  NE1      -34.8520 -111.2700  -28.0900 N.ar  467  TRP467     -0.2442
    259  CE2      -35.9830 -110.8210  -28.7170 C.ar  467  TRP467      0.0810
    260  CE3      -36.6140 -109.9880  -30.9030 C.ar  467  TRP467      0.0012
    261  CZ2      -37.2880 -110.6850  -28.2350 C.ar  467  TRP467      0.0191
    262  CZ3      -37.9170 -109.8520  -30.4240 C.ar  467  TRP467      0.0001
    263  CH2      -38.2390 -110.2000  -29.1010 C.ar  467  TRP467      0.0015
@<TRIPOS>BOND
     1    61    60    1
     2    61    62    1
     3    60    57    1
     4    62    56    1
     5    57    56    1
     6    57    58    1
     7    56    50   am
     8    37    36    2
     9    69    63    1
    10    69    68    1
    11    48    49    1
    12    66    65    2
    13    44    43    2
    14    58    63   am
    15    58    59    2
    16    50    49    1
    17    50    51    2
    18    63    64    1
    19    49    52    1
    20    68    67    1
    21    36    35    1
    22    43    42    1
    23    65    64    1
    24    65    70   am
    25    35    34    1
    26    35    38    1
    27    64    67    1
    28    52    53    1
    29    71    70    1
    30    71    72    1
    31    71    74    1
    32    76    75   ar
    33   214   213    2
    34    72    73    2
    35    77    75   ar
    36    75    74    1
    37    42    45    1
    38    42    41    1
    39    45    47    1
    40    45    46    1
    41    53    54    1
    42    39    38    1
    43   206   205    2
    44    38    40    1
    45   213   212    1
    46    54    55    1
    47    23    22    2
    48   205   204    1
    49   205   211   am
    50    15    14    2
    51   212   211    1
    52   212   215    1
    53   222   220   ar
    54   222   224   ar
    55   219   220   ar
    56   219   217   ar
    57    12    13    1
    58   220   218   ar
    59   224   223   ar
    60    22    21    1
    61   217   216   ar
    62   204   207    1
    63   204   203    1
    64   218   216   ar
    65   218   221   ar
    66   223   221   ar
    67   216   215    1
    68    84    82    1
    69    78    79    1
    70    14    13    1
    71    14    20   am
    72   207   208    1
    73    13    16    1
    74   209   208    2
    75   235   234    2
    76    82    79    1
    77    82    83    1
    78    21    20    1
    79    21    24    1
    80   208   210   am
    81   239   237    1
    82    79    80    1
    83   234   233    1
    84    81    80    2
    85    16    17    1
    86   238   237    1
    87    24    25    1
    88   236   237    1
    89   236   233    1
    90    30    32   ar
    91    30    27   ar
    92   233   232    1
    93   243   242    2
    94   252   253    2
    95   252   251    1
    96    32    33   ar
    97   199   198    2
    98    89    90    1
    99    89    86    1
   100    91    90    1
   101    91    85    1
   102    17    19   ar
   103    17    18   ar
   104    27    25   ar
   105    27    29   ar
   106    25    26   ar
   107   242   241    1
   108   242   250   am
   109   248   246   ar
   110   248   249   ar
   111    97    96    1
   112   246   245   ar
   113    85    86    1
   114    86    87    1
   115   251   250    1
   116   251   254    1
   117   232   227   am
   118    33    31   ar
   119    98    96    1
   120   241   240    1
   121   241   244    1
   122   198   197    1
   123    96    93    1
   124   228   227    2
   125   249   247   ar
   126   227   226    1
   127    29    31   ar
   128    29    28   ar
   129    26    28   ar
   130   245   244    1
   131   245   247   ar
   132     1     2    1
   133   197   196    1
   134   197   200    1
   135   254   255    1
   136    87    88    2
   137   117   116   ar
   138   117   115   ar
   139   116   114   ar
   140   202   200    1
   141   260   262   ar
   142   260   257   ar
   143    93    92    1
   144    93    94    1
   145   106   104    1
   146   262   263   ar
   147   200   201    1
   148   231   229    1
   149   226   225    1
   150   226   229    1
   151   115   113   ar
   152   255   257   ar
   153   255   256   ar
   154     2     5    1
   155     2     3    1
   156    95    94    2
   157   257   259   ar
   158    94    99   am
   159   114   112   ar
   160     5     6    1
   161   137   136    2
   162   229   230    1
   163     4     3    2
   164   184   185    1
   165   187   186    2
   166   104   103    1
   167   263   261   ar
   168    99   100    1
   169   256   258   ar
   170   185   186    1
   171   185   188    1
   172   113   112   ar
   173   259   261   ar
   174   259   258   ar
   175   112   111    1
   176   136   138   am
   177   136   135    1
   178   193   191   ar
   179   193   194   ar
   180   191   189   ar
   181   100   103    1
   182   100   101    1
   183     6     7   ar
   184     6     8   ar
   185   129   128    1
   186   195   194    1
   187   103   105    1
   188   194   192   ar
   189     7     9   ar
   190   189   188    1
   191   189   190   ar
   192     8    10   ar
   193   111   108    1
   194   135   134    1
   195   192   190   ar
   196   101   102    2
   197   128   126   ar
   198   128   127   ar
   199     9    11   ar
   200   134   131    1
   201   108   107    1
   202   108   109    1
   203   126   124   ar
   204   127   125   ar
   205    10    11   ar
   206   153   152    2
   207   175   173    1
   208   110   109    2
   209   131   132    1
   210   131   130    1
   211   152   151    1
   212   156   158   ar
   213   156   155   ar
   214   124   123   ar
   215   125   123   ar
   216   146   148   ar
   217   146   144   ar
   218   148   149   ar
   219   154   155    1
   220   154   151    1
   221   158   160   ar
   222   132   133    2
   223   173   174    1
   224   173   170    1
   225   130   120   am
   226   155   157   ar
   227   123   122    1
   228   151   150    1
   229   143   144    1
   230   143   140    1
   231   144   145   ar
   232   149   147   ar
   233   160   159   ar
   234   157   159   ar
   235   172   171    2
   236   120   121    2
   237   120   119    1
   238   170   171    1
   239   170   169    1
   240   122   119    1
   241   167   165    1
   242   141   142    2
   243   141   140    1
   244   145   147   ar
   245   118   119    1
   246   183   181    1
   247   165   166    1
   248   165   162    1
   249   140   139    1
   250   166   168    1
   251   161   162    1
   252   164   163    2
   253   162   163    1
   254   181   180    1
   255   180   182    1
   256   180   177    1
   257   179   178    2
   258   177   178    1
   259   177   176    1
