@<TRIPOS>MOLECULE
tmp/1ek4C00.pdb
 137 133 0 0 0
SMALL
GASTEIGER

@<TRIPOS>ATOM
      1  N         56.2020   71.7130  114.7810 N.3   106  GLY106     -0.1210
      2  CA        57.2110   70.6760  114.7270 C.3   106  GLY106      0.1956
      3  C         57.8660   70.5630  113.3610 C.2   106  GLY106      0.2612
      4  O         59.0730   70.3330  113.2700 O.2   106  GLY106     -0.2717
      5  N         57.0860   70.7420  112.2970 N.am  107  GLY107     -0.1956
      6  CA        57.6480   70.6130  110.9630 C.3   107  GLY107      0.1869
      7  C         57.4860   71.7590  109.9790 C.2   107  GLY107      0.2309
      8  O         57.8020   71.5930  108.7970 O.2   107  GLY107     -0.2863
      9  N         55.5540   71.0930  105.3800 N.3   110  PRO110     -0.2116
     10  CA        56.0250   70.1770  104.3420 C.3   110  PRO110      0.1372
     11  C         55.1990   70.3560  103.0660 C.2   110  PRO110      0.2244
     12  O         55.7210   70.2340  101.9600 O.2   110  PRO110     -0.2868
     13  CB        55.8200   68.8030  104.9770 C.3   110  PRO110      0.0268
     14  CG        56.0770   69.0740  106.4330 C.3   110  PRO110      0.0207
     15  CD        55.3390   70.3850  106.6560 C.3   110  PRO110      0.0892
     16  N         60.1840   68.9790  118.2800 N.3   162  ALA162     -0.1231
     17  CA        59.3460   67.8490  117.9100 C.3   162  ALA162      0.1694
     18  C         58.0320   67.8260  118.6890 C.2   162  ALA162      0.2592
     19  O         57.2990   68.8150  118.7080 O.2   162  ALA162     -0.2718
     20  CB        60.1200   66.5410  118.1160 C.3   162  ALA162      0.0304
     21  N         57.7430   66.7040  119.3430 N.am  163  SER163     -0.1952
     22  CA        56.5010   66.5610  120.0830 C.3   163  SER163      0.1924
     23  C         56.4470   67.3230  121.4070 C.2   163  SER163      0.2314
     24  O         55.4460   67.2680  122.1100 O.2   163  SER163     -0.2863
     25  CB        56.1980   65.0720  120.3180 C.3   163  SER163      0.2116
     26  OG        56.3210   64.3260  119.1130 O.3   163  SER163     -0.2180
     27  N         50.1610   72.8100  113.9430 N.3   191  GLU191     -0.1245
     28  CA        50.7500   71.8140  113.0650 C.3   191  GLU191      0.1567
     29  C         49.7460   71.5070  111.9660 C.2   191  GLU191      0.2260
     30  O         48.5590   71.3280  112.2400 O.2   191  GLU191     -0.2867
     31  CB        51.0510   70.5280  113.8390 C.3   191  GLU191      0.0388
     32  CG        52.0780   69.6210  113.1740 C.3   191  GLU191      0.1160
     33  CD        53.5010   70.1080  113.3850 C.2   191  GLU191      0.3649
     34  OE1       53.9740   70.0720  114.5400 O.co2 191  GLU191     -0.2457
     35  OE2       54.1450   70.5290  112.4030 O.co2 191  GLU191     -0.2457
     36  N         52.1030   64.6900  102.9290 N.3   196  GLU196     -0.1231
     37  CA        53.4940   65.0820  102.7090 C.3   196  GLU196      0.1699
     38  C         54.3360   64.8680  103.9600 C.2   196  GLU196      0.2592
     39  O         55.4970   64.4690  103.8760 O.2   196  GLU196     -0.2718
     40  CB        53.6030   66.5500  102.2880 C.3   196  GLU196      0.0402
     41  CG        53.1140   66.8670  100.8810 C.3   196  GLU196      0.1161
     42  CD        51.6460   67.2280  100.8370 C.2   196  GLU196      0.3649
     43  OE1       51.2640   68.0210   99.9490 O.co2 196  GLU196     -0.2457
     44  OE2       50.8760   66.7200  101.6780 O.co2 196  GLU196     -0.2457
     45  N         53.7410   65.1330  105.1190 N.am  197  MET197     -0.1979
     46  CA        54.4370   64.9700  106.3890 C.3   197  MET197      0.1605
     47  C         54.2000   63.5890  106.9900 C.2   197  MET197      0.2287
     48  O         55.1320   62.9370  107.4660 O.2   197  MET197     -0.2864
     49  CB        53.9690   66.0270  107.3880 C.3   197  MET197      0.0413
     50  CG        54.6450   65.9080  108.7440 C.3   197  MET197      0.0598
     51  SD        53.9120   66.9810  109.9870 S.3   197  MET197     -0.1393
     52  CE        54.5240   68.5310  109.4360 C.3   197  MET197      0.0692
     53  N         56.3390   60.2470  106.0860 N.3   200  GLU200     -0.1231
     54  CA        57.6640   60.0540  106.6800 C.3   200  GLU200      0.1699
     55  C         57.5490   59.2540  107.9770 C.2   200  GLU200      0.2592
     56  O         58.3980   58.4180  108.2850 O.2   200  GLU200     -0.2718
     57  CB        58.3450   61.4000  106.9740 C.3   200  GLU200      0.0402
     58  CG        59.0360   62.0370  105.7690 C.3   200  GLU200      0.1161
     59  CD        58.0730   62.7270  104.8320 C.2   200  GLU200      0.3649
     60  OE1       58.4990   63.1600  103.7310 O.co2 200  GLU200     -0.2457
     61  OE2       56.8810   62.8470  105.2000 O.co2 200  GLU200     -0.2457
     62  N         56.4980   59.5230  108.7450 N.am  201  PHE201     -0.1976
     63  CA        56.2710   58.8040  109.9910 C.3   201  PHE201      0.1639
     64  C         55.9000   57.3590  109.6980 C.2   201  PHE201      0.2290
     65  O         56.3860   56.4330  110.3540 O.2   201  PHE201     -0.2864
     66  CB        55.1640   59.4890  110.7890 C.3   201  PHE201      0.0560
     67  CG        55.6200   60.7340  111.4830 C.ar  201  PHE201     -0.0200
     68  CD1       56.3750   60.6520  112.6480 C.ar  201  PHE201     -0.0042
     69  CD2       55.3400   61.9850  110.9510 C.ar  201  PHE201     -0.0042
     70  CE1       56.8470   61.8030  113.2790 C.ar  201  PHE201     -0.0003
     71  CE2       55.8080   63.1430  111.5720 C.ar  201  PHE201     -0.0003
     72  CZ        56.5620   63.0520  112.7370 C.ar  201  PHE201     -0.0000
     73  N         51.1970   55.6070  116.9440 N.3   229  PHE229     -0.1241
     74  CA        50.2880   56.7200  117.1490 C.3   229  PHE229      0.1605
     75  C         49.4950   57.0950  115.9050 C.2   229  PHE229      0.2264
     76  O         49.7840   56.6230  114.8100 O.2   229  PHE229     -0.2867
     77  CB        51.0360   57.9390  117.7360 C.3   229  PHE229      0.0534
     78  CG        51.9910   58.6270  116.7850 C.ar  229  PHE229     -0.0203
     79  CD1       51.5320   59.5710  115.8700 C.ar  229  PHE229     -0.0042
     80  CD2       53.3650   58.3950  116.8670 C.ar  229  PHE229     -0.0042
     81  CE1       52.4260   60.2760  115.0590 C.ar  229  PHE229     -0.0003
     82  CE2       54.2630   59.0960  116.0580 C.ar  229  PHE229     -0.0003
     83  CZ        53.7900   60.0350  115.1560 C.ar  229  PHE229     -0.0000
     84  N         52.1970   61.7840  128.1850 N.3   298  HIS298     -0.1241
     85  CA        52.5910   61.9720  126.7990 C.3   298  HIS298      0.1621
     86  C         51.8560   60.8700  126.0230 C.2   298  HIS298      0.2264
     87  O         51.2870   61.1180  124.9590 O.2   298  HIS298     -0.2867
     88  CB        54.1050   61.8030  126.6800 C.3   298  HIS298      0.0745
     89  CG        54.6180   61.8360  125.2740 C.ar  298  HIS298      0.0817
     90  ND1       54.4590   62.9260  124.4460 N.ar  298  HIS298     -0.2268
     91  CD2       55.2930   60.9100  124.5520 C.ar  298  HIS298      0.1154
     92  CE1       55.0150   62.6710  123.2740 C.ar  298  HIS298      0.1986
     93  NE2       55.5290   61.4550  123.3130 N.ar  298  HIS298     -0.2212
     94  N         47.8420   62.3050  117.9400 N.3   333  HIS333     -0.1241
     95  CA        49.0820   63.0230  118.2410 C.3   333  HIS333      0.1621
     96  C         49.2550   64.2420  117.3310 C.2   333  HIS333      0.2264
     97  O         49.6180   64.0940  116.1640 O.2   333  HIS333     -0.2867
     98  CB        50.2540   62.0590  118.0390 C.3   333  HIS333      0.0745
     99  CG        51.5480   62.5250  118.6280 C.ar  333  HIS333      0.0817
    100  ND1       51.7720   63.8290  119.0130 N.ar  333  HIS333     -0.2268
    101  CD2       52.7040   61.8600  118.8640 C.ar  333  HIS333      0.1154
    102  CE1       53.0080   63.9460  119.4600 C.ar  333  HIS333      0.1986
    103  NE2       53.5950   62.7660  119.3800 N.ar  333  HIS333     -0.2212
    104  N         51.5270   66.3860  117.3430 N.3   335  LEU335     -0.1245
    105  CA        52.9380   66.7480  117.2560 C.3   335  LEU335      0.1561
    106  C         53.3220   68.0730  117.9210 C.2   335  LEU335      0.2260
    107  O         53.2690   68.1940  119.1380 O.2   335  LEU335     -0.2867
    108  CB        53.3560   66.7550  115.7800 C.3   335  LEU335      0.0270
    109  CG        52.9130   65.5140  114.9910 C.3   335  LEU335      0.0019
    110  CD1       53.3120   65.6510  113.5210 C.3   335  LEU335      0.0001
    111  CD2       53.5290   64.2670  115.6020 C.3   335  LEU335      0.0001
    112  N         57.1970   64.6520  125.4200 N.3   390  PHE390     -0.1227
    113  CA        58.5290   64.1850  125.0480 C.3   390  PHE390      0.1736
    114  C         58.6400   64.1530  123.5250 C.2   390  PHE390      0.2596
    115  O         57.6610   63.8870  122.8340 O.2   390  PHE390     -0.2718
    116  CB        58.7870   62.7910  125.6270 C.3   390  PHE390      0.0547
    117  CG        58.4740   62.6780  127.0940 C.ar  390  PHE390     -0.0202
    118  CD1       58.9520   63.6230  127.9990 C.ar  390  PHE390     -0.0042
    119  CD2       57.6970   61.6280  127.5730 C.ar  390  PHE390     -0.0042
    120  CE1       58.6590   63.5260  129.3660 C.ar  390  PHE390     -0.0003
    121  CE2       57.4000   61.5220  128.9380 C.ar  390  PHE390     -0.0003
    122  CZ        57.8800   62.4700  129.8320 C.ar  390  PHE390     -0.0000
    123  N         59.8270   64.4340  123.0000 N.am  391  GLY391     -0.1942
    124  CA        59.9930   64.4300  121.5590 C.3   391  GLY391      0.2014
    125  C         61.2220   63.6890  121.0730 C.2   391  GLY391      0.2638
    126  O         62.0900   63.3230  121.8680 O.2   391  GLY391     -0.2714
    127  N         61.2830   63.4540  119.7630 N.am  392  PHE392     -0.1973
    128  CA        62.4200   62.7800  119.1470 C.3   392  PHE392      0.1639
    129  C         63.6580   63.6090  119.4590 C.2   392  PHE392      0.2290
    130  O         63.5780   64.8340  119.5850 O.2   392  PHE392     -0.2864
    131  CB        62.2500   62.7020  117.6240 C.3   392  PHE392      0.0560
    132  CG        61.2070   61.7240  117.1650 C.ar  392  PHE392     -0.0200
    133  CD1       60.9560   61.5580  115.8040 C.ar  392  PHE392     -0.0042
    134  CD2       60.4730   60.9690  118.0790 C.ar  392  PHE392     -0.0042
    135  CE1       59.9880   60.6520  115.3590 C.ar  392  PHE392     -0.0003
    136  CE2       59.5060   60.0660  117.6430 C.ar  392  PHE392     -0.0003
    137  CZ        59.2620   59.9060  116.2810 C.ar  392  PHE392     -0.0000
@<TRIPOS>BOND
     1    43    42   ar
     2    42    41    1
     3    42    44   ar
     4    41    40    1
     5    12    11    2
     6    40    37    1
     7    37    36    1
     8    37    38    1
     9    11    10    1
    10    60    59   ar
    11    39    38    2
    12    38    45   am
    13    10    13    1
    14    10     9    1
    15    59    61   ar
    16    59    58    1
    17    13    14    1
    18    45    46    1
    19     9    15    1
    20    58    57    1
    21    53    54    1
    22    46    47    1
    23    46    49    1
    24    14    15    1
    25    54    57    1
    26    54    55    1
    27    47    48    2
    28    49    50    1
    29    55    56    2
    30    55    62   am
    31    50    51    1
    32    62    63    1
    33     8     7    2
    34    52    51    1
    35    64    63    1
    36    64    65    2
    37     7     6    1
    38    63    66    1
    39    66    67    1
    40    69    67   ar
    41    69    71   ar
    42     6     5    1
    43    67    68   ar
    44    71    72   ar
    45    29    30    2
    46    29    28    1
    47     5     3   am
    48    35    33   ar
    49    68    70   ar
    50    72    70   ar
    51    28    31    1
    52    28    27    1
    53    32    33    1
    54    32    31    1
    55     4     3    2
    56     3     2    1
    57    33    34   ar
    58   110   109    1
    59     2     1    1
    60    76    75    2
    61   109   111    1
    62   109   108    1
    63    81    83   ar
    64    81    79   ar
    65    83    82   ar
    66   135   133   ar
    67   135   137   ar
    68   108   105    1
    69   133   132   ar
    70    79    78   ar
    71    75    74    1
    72    82    80   ar
    73    97    96    2
    74   137   136   ar
    75    78    80   ar
    76    78    77    1
    77    73    74    1
    78    74    77    1
    79   132   131    1
    80   132   134   ar
    81   105   104    1
    82   105   106    1
    83    96    95    1
    84   131   128    1
    85   136   134   ar
    86    17    20    1
    87    17    16    1
    88    17    18    1
    89   106   107    2
    90    94    95    1
    91    98    95    1
    92    98    99    1
    93    99   101   ar
    94    99   100   ar
    95    18    19    2
    96    18    21   am
    97   101   103   ar
    98   100   102   ar
    99    26    25    1
   100   128   129    1
   101   128   127    1
   102    21    22    1
   103   103   102   ar
   104   129   130    2
   105   127   125   am
   106    22    25    1
   107    22    23    1
   108   125   124    1
   109   125   126    2
   110    23    24    2
   111   124   123    1
   112   115   114    2
   113   123   114   am
   114    92    93   ar
   115    92    90   ar
   116    93    91   ar
   117   114   113    1
   118    90    89   ar
   119    91    89   ar
   120    87    86    2
   121   113   112    1
   122   113   116    1
   123    89    88    1
   124   116   117    1
   125    86    85    1
   126    88    85    1
   127    85    84    1
   128   117   119   ar
   129   117   118   ar
   130   119   121   ar
   131   118   120   ar
   132   121   122   ar
   133   120   122   ar
