@<TRIPOS>MOLECULE
tmp/1ekbB00.pdb
 171 175 0 0 0
SMALL
GASTEIGER

@<TRIPOS>ATOM
      1  N         -8.3230   -6.3350    9.0260 N.3     8  ARG8       -0.1231
      2  CA        -9.2150   -7.1690    9.8210 C.3     8  ARG8        0.1694
      3  C         -8.4910   -7.7870   11.0130 C.2     8  ARG8        0.2592
      4  O         -7.2650   -7.8500   11.0460 O.2     8  ARG8       -0.2718
      5  CB        -9.8640   -8.2760    8.9700 C.3     8  ARG8        0.0321
      6  CG        -8.9260   -9.1310    8.1290 C.3     8  ARG8        0.0489
      7  CD        -8.8730   -8.6290    6.6950 C.3     8  ARG8        0.2205
      8  NE        -7.9880   -7.4760    6.5470 N.pl3   8  ARG8       -0.0865
      9  CZ        -6.6590   -7.5490    6.5420 C.cat   8  ARG8        0.5346
     10  NH1       -6.0510   -8.7230    6.6750 N.pl3   8  ARG8        0.1354
     11  NH2       -5.9360   -6.4480    6.3970 N.pl3   8  ARG8        0.1354
     12  N         -9.2700   -8.2230   11.9970 N.am    9  GLU9       -0.1966
     13  CA        -8.7390   -8.8320   13.2090 C.3     9  GLU9        0.1733
     14  C         -7.7100   -9.8980   12.8860 C.2     9  GLU9        0.2617
     15  O         -7.9330  -10.7290   12.0080 O.2     9  GLU9       -0.2715
     16  CB        -9.8770   -9.4560   14.0200 C.3     9  GLU9        0.0429
     17  CG       -10.9060   -8.4470   14.4780 C.3     9  GLU9        0.1163
     18  CD       -11.9620   -9.0430   15.3740 C.2     9  GLU9        0.3649
     19  OE1      -12.0000  -10.2830   15.5300 O.co2   9  GLU9       -0.2457
     20  OE2      -12.7610   -8.2610   15.9220 O.co2   9  GLU9       -0.2457
     21  N         -6.5820   -9.8610   13.5930 N.am   10  GLY10      -0.1940
     22  CA        -5.5360  -10.8490   13.3820 C.3    10  GLY10       0.2014
     23  C         -4.5450  -10.5580   12.2670 C.2    10  GLY10       0.2639
     24  O         -3.5260  -11.2370   12.1540 O.2    10  GLY10      -0.2714
     25  N         -4.8340   -9.5520   11.4460 N.am   11  ALA11      -0.1963
     26  CA        -3.9620   -9.1950   10.3300 C.3    11  ALA11       0.1728
     27  C         -2.5270   -8.9260   10.7780 C.2    11  ALA11       0.2616
     28  O         -1.5820   -9.4420   10.1840 O.2    11  ALA11      -0.2715
     29  CB        -4.5180   -7.9740    9.5990 C.3    11  ALA11       0.0334
     30  N         -2.3750   -8.1220   11.8280 N.am   12  TRP12      -0.1960
     31  CA        -1.0570   -7.7720   12.3490 C.3    12  TRP12       0.1756
     32  C         -1.0170   -7.9800   13.8620 C.2    12  TRP12       0.2462
     33  O         -1.0550   -7.0170   14.6370 O.2    12  TRP12      -0.2730
     34  CB        -0.7400   -6.3180   11.9990 C.3    12  TRP12       0.0590
     35  CG        -0.9240   -6.0110   10.5410 C.ar   12  TRP12       0.0006
     36  CD1       -1.9420   -5.3020    9.9720 C.ar   12  TRP12       0.0946
     37  CD2       -0.0660   -6.4090    9.4650 C.ar   12  TRP12       0.0152
     38  NE1       -1.7710   -5.2280    8.6100 N.ar   12  TRP12      -0.2442
     39  CE2       -0.6280   -5.8990    8.2710 C.ar   12  TRP12       0.0810
     40  CE3        1.1230   -7.1460    9.3920 C.ar   12  TRP12       0.0012
     41  CZ2       -0.0380   -6.1040    7.0140 C.ar   12  TRP12       0.0191
     42  CZ3        1.7080   -7.3500    8.1430 C.ar   12  TRP12       0.0001
     43  CH2        1.1240   -6.8290    6.9720 C.ar   12  TRP12       0.0015
     44  N         -0.9300   -9.2510   14.2990 N.am   13  PRO13      -0.2716
     45  CA        -0.8920   -9.6170   15.7220 C.3    13  PRO13       0.1536
     46  C          0.2580   -9.0590   16.5750 C.2    13  PRO13       0.2598
     47  O          0.2270   -9.1730   17.8010 O.2    13  PRO13      -0.2715
     48  CB        -0.9160  -11.1510   15.6880 C.3    13  PRO13       0.0310
     49  CG        -0.2830  -11.4900   14.3730 C.3    13  PRO13       0.0237
     50  CD        -0.8500  -10.4520   13.4420 C.3    13  PRO13       0.0939
     51  N          1.2590   -8.4540   15.9400 N.am   14  TRP14      -0.1974
     52  CA         2.3850   -7.8850   16.6730 C.3    14  TRP14       0.1640
     53  C          2.2710   -6.3820   16.8530 C.2    14  TRP14       0.2290
     54  O          3.0650   -5.7790   17.5670 O.2    14  TRP14      -0.2864
     55  CB         3.6960   -8.2290   15.9720 C.3    14  TRP14       0.0576
     56  CG         3.5960   -8.1420   14.4950 C.ar   14  TRP14       0.0006
     57  CD1        3.5870   -7.0090   13.7380 C.ar   14  TRP14       0.0946
     58  CD2        3.4420   -9.2380   13.5860 C.ar   14  TRP14       0.0152
     59  NE1        3.4370   -7.3310   12.4080 N.ar   14  TRP14      -0.2442
     60  CE2        3.3480   -8.6930   12.2870 C.ar   14  TRP14       0.0810
     61  CE3        3.3760  -10.6300   13.7440 C.ar   14  TRP14       0.0012
     62  CZ2        3.1890   -9.4890   11.1510 C.ar   14  TRP14       0.0191
     63  CZ3        3.2150  -11.4250   12.6140 C.ar   14  TRP14       0.0001
     64  CH2        3.1250  -10.8490   11.3310 C.ar   14  TRP14       0.0015
     65  N         -1.3100  -15.6460   21.2720 N.3   105  THR105     -0.1203
     66  CA        -2.5530  -16.1850   20.7320 C.3   105  THR105      0.1994
     67  C         -2.5030  -15.9650   19.2280 C.2   105  THR105      0.2618
     68  O         -1.4550  -15.6020   18.6880 O.2   105  THR105     -0.2717
     69  CB        -3.8010  -15.4560   21.2890 C.3   105  THR105      0.1784
     70  OG1       -3.8840  -14.1370   20.7300 O.3   105  THR105     -0.2211
     71  CG2       -3.7300  -15.3650   22.8090 C.3   105  THR105      0.0376
     72  N         -3.6250  -16.1770   18.5460 N.am  106  ASP106     -0.1959
     73  CA        -3.6480  -15.9760   17.1070 C.3   106  ASP106      0.1840
     74  C         -3.7280  -14.4850   16.8020 C.2   106  ASP106      0.2622
     75  O         -3.4830  -14.0600   15.6750 O.2   106  ASP106     -0.2715
     76  CB        -4.8300  -16.7120   16.4770 C.3   106  ASP106      0.1450
     77  CG        -4.7540  -18.2100   16.6750 C.2   106  ASP106      0.3671
     78  OD1       -3.6430  -18.7740   16.5750 O.co2 106  ASP106     -0.2456
     79  OD2       -5.8100  -18.8310   16.9180 O.co2 106  ASP106     -0.2456
     80  N         -4.0600  -13.6970   17.8200 N.am  107  TYR107     -0.1974
     81  CA        -4.1650  -12.2480   17.6670 C.3   107  TYR107      0.1639
     82  C         -2.9930  -11.4960   18.2900 C.2   107  TYR107      0.2290
     83  O         -2.8790  -10.2810   18.1260 O.2   107  TYR107     -0.2864
     84  CB        -5.4760  -11.7370   18.2780 C.3   107  TYR107      0.0560
     85  CG        -6.6820  -12.4000   17.6810 C.ar  107  TYR107     -0.0198
     86  CD1       -7.2700  -11.8970   16.5210 C.ar  107  TYR107     -0.0009
     87  CD2       -7.1860  -13.5830   18.2200 C.ar  107  TYR107     -0.0009
     88  CE1       -8.3250  -12.5620   15.9050 C.ar  107  TYR107      0.0417
     89  CE2       -8.2420  -14.2550   17.6160 C.ar  107  TYR107      0.0417
     90  CZ        -8.8040  -13.7410   16.4540 C.ar  107  TYR107      0.1957
     91  OH        -9.8220  -14.4290   15.8310 O.3   107  TYR107     -0.2866
     92  N          1.1380  -11.9620   18.5170 N.3   109  GLN109     -0.1231
     93  CA         2.3450  -12.6820   18.1550 C.3   109  GLN109      0.1683
     94  C          3.5020  -11.7220   18.0420 C.2   109  GLN109      0.2434
     95  O          3.3110  -10.5240   17.8600 O.2   109  GLN109     -0.2733
     96  CB         2.1470  -13.4060   16.8170 C.3   109  GLN109      0.0380
     97  CG         1.1690  -14.5620   16.8740 C.3   109  GLN109      0.0905
     98  CD         1.7730  -15.8260   17.4710 C.2   109  GLN109      0.2608
     99  OE1        1.0950  -16.5740   18.1720 O.2   109  GLN109     -0.2717
    100  NE2        3.0490  -16.0730   17.1830 N.am  109  GLN109     -0.0878
    101  N          4.7280  -12.2340   18.1870 N.am  110  PRO110     -0.2718
    102  CA         5.8920  -11.3530   18.0770 C.3   110  PRO110      0.1535
    103  C          6.3200  -11.2580   16.6110 C.2   110  PRO110      0.2598
    104  O          6.1990  -12.2290   15.8670 O.2   110  PRO110     -0.2715
    105  CB         6.9360  -12.0680   18.9230 C.3   110  PRO110      0.0310
    106  CG         6.6480  -13.5090   18.6140 C.3   110  PRO110      0.0237
    107  CD         5.1200  -13.5730   18.6670 C.3   110  PRO110      0.0939
    108  N          6.7970  -10.0880   16.1980 N.am  111  ILE111     -0.1964
    109  CA         7.2680   -9.9300   14.8340 C.3   111  ILE111      0.1727
    110  C          8.7440  -10.3350   14.8550 C.2   111  ILE111      0.2616
    111  O          9.4390  -10.1350   15.8550 O.2   111  ILE111     -0.2715
    112  CB         7.1150   -8.4650   14.3280 C.3   111  ILE111      0.0290
    113  CG1        7.5400   -8.3820   12.8520 C.3   111  ILE111      0.0022
    114  CG2        7.9350   -7.5240   15.1840 C.3   111  ILE111      0.0023
    115  CD1        7.2500   -7.0520   12.1790 C.3   111  ILE111      0.0001
    116  N          9.2120  -10.9320   13.7600 N.am  112  CYS112     -0.1954
    117  CA        10.6000  -11.3510   13.6740 C.3   112  CYS112      0.1843
    118  C         11.5120  -10.1360   13.6150 C.2   112  CYS112      0.2625
    119  O         11.1380   -9.0880   13.0990 O.2   112  CYS112     -0.2714
    120  CB        10.8340  -12.1990   12.4240 C.3   112  CYS112      0.0997
    121  SG         9.9870  -13.7920   12.3620 S.3   112  CYS112     -0.0797
    122  N         12.7070  -10.2780   14.1670 N.am  113  LEU113     -0.1977
    123  CA        13.6940   -9.2110   14.1320 C.3   113  LEU113      0.1596
    124  C         14.6040   -9.5250   12.9450 C.2   113  LEU113      0.2287
    125  O         15.0250  -10.6670   12.7670 O.2   113  LEU113     -0.2864
    126  CB        14.5170   -9.1860   15.4260 C.3   113  LEU113      0.0297
    127  CG        13.9720   -8.3430   16.5810 C.3   113  LEU113      0.0022
    128  CD1       14.7330   -8.6510   17.8560 C.3   113  LEU113      0.0001
    129  CD2       14.0870   -6.8710   16.2290 C.3   113  LEU113      0.0001
    130  N         -3.7560   -0.0850    7.6630 N.3   146  GLU146     -0.1245
    131  CA        -2.5940   -0.7540    7.0960 C.3   146  GLU146      0.1567
    132  C         -2.3570   -0.1190    5.7350 C.2   146  GLU146      0.2260
    133  O         -3.2650    0.4630    5.1540 O.2   146  GLU146     -0.2867
    134  CB        -2.8590   -2.2430    6.9070 C.3   146  GLU146      0.0388
    135  CG        -3.9150   -2.5540    5.8660 C.3   146  GLU146      0.1160
    136  CD        -4.0400   -4.0340    5.6260 C.2   146  GLU146      0.3649
    137  OE1       -4.0790   -4.7840    6.6150 O.co2 146  GLU146     -0.2457
    138  OE2       -4.1020   -4.4530    4.4560 O.co2 146  GLU146     -0.2457
    139  N          7.4770  -15.8150    3.7520 N.3   197  ASN197     -0.1225
    140  CA         6.4380  -16.2330    4.6730 C.3   197  ASN197      0.1785
    141  C          6.5220  -15.5350    6.0260 C.2   197  ASN197      0.2597
    142  O          5.5050  -15.3780    6.6970 O.2   197  ASN197     -0.2718
    143  CB         6.4900  -17.7460    4.8510 C.3   197  ASN197      0.1169
    144  CG         6.0540  -18.5110    3.6270 C.2   197  ASN197      0.2627
    145  OD1        5.3320  -17.9690    2.7500 O.2   197  ASN197     -0.2716
    146  ND2        6.4660  -19.7520    3.5150 N.am  197  ASN197     -0.0877
    147  N          7.7210  -15.0910    6.4060 N.am  198  ARG198     -0.1966
    148  CA         7.9330  -14.4150    7.6890 C.3   198  ARG198      0.1729
    149  C          8.0490  -12.8860    7.6240 C.2   198  ARG198      0.2616
    150  O          8.7670  -12.3560    6.7880 O.2   198  ARG198     -0.2715
    151  CB         9.1920  -14.9750    8.3830 C.3   198  ARG198      0.0348
    152  CG         9.1600  -16.4830    8.6500 C.3   198  ARG198      0.0492
    153  CD         7.8200  -16.8970    9.2620 C.3   198  ARG198      0.2205
    154  NE         7.9010  -18.1390   10.0290 N.pl3 198  ARG198     -0.0865
    155  CZ         7.2590  -19.2570    9.7030 C.cat 198  ARG198      0.5346
    156  NH1        6.4930  -19.2790    8.6210 N.pl3 198  ARG198      0.1354
    157  NH2        7.3730  -20.3450   10.4540 N.pl3 198  ARG198      0.1354
    158  N          7.3520  -12.1860    8.5250 N.am  199  TRP199     -0.1974
    159  CA         7.4150  -10.7280    8.5720 C.3   199  TRP199      0.1640
    160  C          8.5320  -10.2690    9.5020 C.2   199  TRP199      0.2290
    161  O          8.6900  -10.7890   10.6100 O.2   199  TRP199     -0.2864
    162  CB         6.0860  -10.1310    9.0270 C.3   199  TRP199      0.0576
    163  CG         5.0100  -10.3060    8.0280 C.ar  199  TRP199      0.0006
    164  CD1        4.1810  -11.3740    7.9010 C.ar  199  TRP199      0.0946
    165  CD2        4.6660   -9.3960    6.9830 C.ar  199  TRP199      0.0152
    166  NE1        3.3310  -11.1890    6.8380 N.ar  199  TRP199     -0.2442
    167  CE2        3.6060   -9.9800    6.2560 C.ar  199  TRP199      0.0810
    168  CE3        5.1510   -8.1450    6.5870 C.ar  199  TRP199      0.0012
    169  CZ2        3.0180   -9.3520    5.1520 C.ar  199  TRP199      0.0191
    170  CZ3        4.5720   -7.5180    5.4900 C.ar  199  TRP199      0.0001
    171  CH2        3.5140   -8.1220    4.7860 C.ar  199  TRP199      0.0015
@<TRIPOS>BOND
     1   145   144    2
     2   146   144   am
     3   144   143    1
     4   139   140    1
     5   138   136   ar
     6   140   143    1
     7   140   141    1
     8   171   169   ar
     9   171   170   ar
    10   169   167   ar
    11   133   132    2
    12   170   168   ar
    13   136   135    1
    14   136   137   ar
    15   132   131    1
    16   135   134    1
    17   141   147   am
    18   141   142    2
    19   167   166   ar
    20   167   165   ar
    21    11     9    1
    22   147   148    1
    23     9     8    2
    24     9    10    1
    25     8     7    1
    26   168   165   ar
    27     7     6    1
    28   150   149    2
    29   166   164   ar
    30   134   131    1
    31    43    41   ar
    32    43    42   ar
    33   165   163   ar
    34    41    39   ar
    35   131   130    1
    36   149   148    1
    37   149   158   am
    38   148   151    1
    39   164   163   ar
    40   163   162    1
    41     6     5    1
    42    42    40   ar
    43    39    38   ar
    44    39    37   ar
    45   151   152    1
    46   158   159    1
    47   159   162    1
    48   159   160    1
    49    38    36   ar
    50   156   155    1
    51   152   153    1
    52     5     2    1
    53     1     2    1
    54   153   154    1
    55    40    37   ar
    56    37    35   ar
    57   160   161    2
    58    29    26    1
    59   155   154    2
    60   155   157    1
    61     2     3    1
    62    36    35   ar
    63    28    27    2
    64    26    27    1
    65    26    25    1
    66    35    34    1
    67    27    30   am
    68     3     4    2
    69     3    12   am
    70    62    64   ar
    71    62    60   ar
    72    64    63   ar
    73    25    23   am
    74    30    31    1
    75    12    13    1
    76    34    31    1
    77    15    14    2
    78    24    23    2
    79   115   113    1
    80    23    22    1
    81    60    59   ar
    82    60    58   ar
    83    31    32    1
    84   121   120    1
    85    59    57   ar
    86   120   117    1
    87    63    61   ar
    88   125   124    2
    89   113   112    1
    90    14    13    1
    91    14    21   am
    92   124   123    1
    93   119   118    2
    94    13    16    1
    95    22    21    1
    96    50    44    1
    97    50    49    1
    98    58    61   ar
    99    58    56   ar
   100   118   117    1
   101   118   122   am
   102   117   116    1
   103    57    56   ar
   104   116   110   am
   105    32    44   am
   106    32    33    2
   107    16    17    1
   108   123   122    1
   109   123   126    1
   110    44    45    1
   111   112   109    1
   112   112   114    1
   113    49    48    1
   114    17    18    1
   115    56    55    1
   116   109   110    1
   117   109   108    1
   118   110   111    2
   119    18    19   ar
   120    18    20   ar
   121   126   127    1
   122    75    74    2
   123    48    45    1
   124    45    46    1
   125    91    90    1
   126   104   103    2
   127    88    90   ar
   128    88    86   ar
   129    51    46   am
   130    51    52    1
   131    55    52    1
   132   108   103   am
   133   129   127    1
   134    90    89   ar
   135    76    77    1
   136    76    73    1
   137    86    85   ar
   138    46    47    2
   139    78    77   ar
   140   127   128    1
   141   103   102    1
   142    52    53    1
   143    77    79   ar
   144    74    73    1
   145    74    80   am
   146    96    97    1
   147    96    93    1
   148    53    54    2
   149    97    98    1
   150    73    72    1
   151   100    98   am
   152    98    99    2
   153    89    87   ar
   154    81    80    1
   155    81    84    1
   156    81    82    1
   157    85    87   ar
   158    85    84    1
   159    95    94    2
   160    94    93    1
   161    94   101   am
   162   102   101    1
   163   102   105    1
   164    83    82    2
   165    93    92    1
   166   101   107    1
   167    72    67   am
   168   106   107    1
   169   106   105    1
   170    68    67    2
   171    67    66    1
   172    70    69    1
   173    66    65    1
   174    66    69    1
   175    69    71    1
