@<TRIPOS>MOLECULE
tmp/1ekbB01.pdb
 196 191 0 0 0
SMALL
GASTEIGER

@<TRIPOS>ATOM
      1  N         -1.5000    7.3710   22.0190 N.3    25  VAL25      -0.1231
      2  CA        -0.5760    8.3090   21.3820 C.3    25  VAL25       0.1692
      3  C          0.4550    7.7050   20.4220 C.2    25  VAL25       0.2592
      4  O          1.0380    8.4220   19.6130 O.2    25  VAL25      -0.2718
      5  CB         0.1880    9.1330   22.4490 C.3    25  VAL25       0.0266
      6  CG1       -0.7700   10.0480   23.1810 C.3    25  VAL25       0.0020
      7  CG2        0.8690    8.1980   23.4370 C.3    25  VAL25       0.0020
      8  N          0.6920    6.4010   20.5050 N.am   26  CYS26      -0.1970
      9  CA         1.6640    5.7810   19.6090 C.3    26  CYS26       0.1712
     10  C          1.4730    4.2900   19.3850 C.2    26  CYS26       0.2296
     11  O          0.6360    3.6520   20.0170 O.2    26  CYS26      -0.2864
     12  CB         3.0890    6.0370   20.1170 C.3    26  CYS26       0.0983
     13  SG         3.6330    7.7350   19.9300 S.3    26  CYS26      -0.0798
     14  N         10.7350    9.3230   20.5220 N.3    41  HIS41      -0.1226
     15  CA         9.9860   10.5630   20.7180 C.3    41  HIS41       0.1752
     16  C          8.5880   10.3260   21.2720 C.2    41  HIS41       0.2596
     17  O          7.8750   11.2700   21.6230 O.2    41  HIS41      -0.2718
     18  CB         9.9210   11.4090   19.4330 C.3    41  HIS41       0.0759
     19  CG         8.8840   10.9720   18.4380 C.ar   41  HIS41       0.0818
     20  ND1        9.0440    9.8760   17.6230 N.ar   41  HIS41      -0.2268
     21  CD2        7.7310   11.5680   18.0430 C.ar   41  HIS41       0.1154
     22  CE1        8.0470    9.8180   16.7570 C.ar   41  HIS41       0.1986
     23  NE2        7.2410   10.8380   16.9850 N.ar   41  HIS41      -0.2212
     24  N          8.1950    9.0630   21.3500 N.am   42  CYS42      -0.1970
     25  CA         6.8900    8.7360   21.8990 C.3    42  CYS42       0.1712
     26  C          6.9870    8.8730   23.4170 C.2    42  CYS42       0.2296
     27  O          6.1200    9.4670   24.0520 O.2    42  CYS42      -0.2864
     28  CB         6.4920    7.3020   21.5390 C.3    42  CYS42       0.0983
     29  SG         6.0960    7.0370   19.7920 S.3    42  CYS42      -0.0798
     30  N         19.6130    8.6140   21.2510 N.3    84  TYR84      -0.1241
     31  CA        18.4930    9.3350   20.6770 C.3    84  TYR84       0.1605
     32  C         18.8140   10.8210   20.6810 C.2    84  TYR84       0.2264
     33  O         19.3320   11.3450   21.6630 O.2    84  TYR84      -0.2867
     34  CB        17.2340    9.0990   21.5000 C.3    84  TYR84       0.0534
     35  CG        16.0880    9.9880   21.0980 C.ar   84  TYR84      -0.0201
     36  CD1       15.6390   10.0250   19.7790 C.ar   84  TYR84      -0.0009
     37  CD2       15.4480   10.7890   22.0340 C.ar   84  TYR84      -0.0009
     38  CE1       14.5740   10.8440   19.4030 C.ar   84  TYR84       0.0417
     39  CE2       14.3860   11.6100   21.6690 C.ar   84  TYR84       0.0417
     40  CZ        13.9560   11.6320   20.3540 C.ar   84  TYR84       0.1957
     41  OH        12.9100   12.4450   19.9910 O.3    84  TYR84      -0.2866
     42  N         16.7230   14.2020   19.8600 N.3    86  LYS86      -0.1245
     43  CA        15.5050   14.9130   19.4890 C.3    86  LYS86       0.1561
     44  C         15.7500   15.9780   18.4270 C.2    86  LYS86       0.2260
     45  O         14.9420   16.1510   17.5080 O.2    86  LYS86      -0.2867
     46  CB        14.8700   15.5550   20.7270 C.3    86  LYS86       0.0271
     47  CG        13.9390   16.7230   20.4150 C.3    86  LYS86       0.0035
     48  CD        12.9720   17.0110   21.5550 C.3    86  LYS86       0.0206
     49  CE        11.7220   16.1490   21.4490 C.3    86  LYS86       0.1093
     50  NZ        12.0190   14.6900   21.4280 N.3    86  LYS86      -0.1314
     51  N         16.5420   14.0070   15.3650 N.3    89  LYS89      -0.1245
     52  CA        15.5250   13.0060   15.0520 C.3    89  LYS89       0.1561
     53  C         16.2440   11.7230   14.6460 C.2    89  LYS89       0.2260
     54  O         15.7230   10.9160   13.8760 O.2    89  LYS89      -0.2867
     55  CB        14.6370   13.4800   13.8980 C.3    89  LYS89       0.0271
     56  CG        13.7600   14.6860   14.2080 C.3    89  LYS89       0.0035
     57  CD        13.1120   15.2250   12.9440 C.3    89  LYS89       0.0206
     58  CE        12.3620   16.5160   13.2090 C.3    89  LYS89       0.1093
     59  NZ        11.1600   16.2840   14.0450 N.3    89  LYS89      -0.1314
     60  N         15.6610    7.3120   16.6180 N.3    92  ASP92      -0.1239
     61  CA        14.3280    7.3810   17.2200 C.3    92  ASP92       0.1674
     62  C         13.7480    5.9900   17.4590 C.2    92  ASP92       0.2266
     63  O         12.9120    5.5130   16.6930 O.2    92  ASP92      -0.2867
     64  CB        13.3970    8.1780   16.3090 C.3    92  ASP92       0.1410
     65  CG        12.1600    8.6590   17.0260 C.2    92  ASP92       0.3668
     66  OD1       12.0010    8.3130   18.2150 O.co2  92  ASP92      -0.2456
     67  OD2       11.3480    9.3810   16.4050 O.co2  92  ASP92      -0.2456
     68  N         -3.0300   14.3920    7.0500 N.3   136  TYR136     -0.1241
     69  CA        -2.2320   15.2690    7.9020 C.3   136  TYR136      0.1605
     70  C         -3.0920   16.2280    8.7280 C.2   136  TYR136      0.2264
     71  O         -4.0020   16.8800    8.2060 O.2   136  TYR136     -0.2867
     72  CB        -1.2420   16.0680    7.0640 C.3   136  TYR136      0.0534
     73  CG        -0.3250   16.9470    7.8830 C.ar  136  TYR136     -0.0201
     74  CD1        0.5200   16.4000    8.8500 C.ar  136  TYR136     -0.0009
     75  CD2       -0.2840   18.3240    7.6750 C.ar  136  TYR136     -0.0009
     76  CE1        1.3890   17.2070    9.5870 C.ar  136  TYR136      0.0417
     77  CE2        0.5790   19.1400    8.4080 C.ar  136  TYR136      0.0417
     78  CZ         1.4140   18.5770    9.3590 C.ar  136  TYR136      0.1957
     79  OH         2.2850   19.3870   10.0640 O.3   136  TYR136     -0.2866
     80  N         16.8820   17.6840    6.4790 N.3   164  TYR164     -0.1241
     81  CA        17.2060   16.7690    7.5660 C.3   164  TYR164      0.1605
     82  C         18.4580   15.9970    7.2130 C.2   164  TYR164      0.2264
     83  O         18.9010   15.9880    6.0630 O.2   164  TYR164     -0.2867
     84  CB        16.0740   15.7690    7.8120 C.3   164  TYR164      0.0534
     85  CG        14.6970   16.3810    7.9070 C.ar  164  TYR164     -0.0201
     86  CD1       13.9940   16.7390    6.7570 C.ar  164  TYR164     -0.0009
     87  CD2       14.0970   16.6060    9.1430 C.ar  164  TYR164     -0.0009
     88  CE1       12.7290   17.3060    6.8350 C.ar  164  TYR164      0.0417
     89  CE2       12.8310   17.1740    9.2340 C.ar  164  TYR164      0.0417
     90  CZ        12.1530   17.5220    8.0760 C.ar  164  TYR164      0.1957
     91  OH        10.8990   18.0840    8.1560 O.3   164  TYR164     -0.2866
     92  N          1.2480    7.0300    3.4070 N.3   181  ASP181     -0.1225
     93  CA         2.3360    7.3160    4.3380 C.3   181  ASP181      0.1805
     94  C          1.8980    7.1900    5.8010 C.2   181  ASP181      0.2598
     95  O          0.7020    7.2050    6.1130 O.2   181  ASP181     -0.2718
     96  CB         2.8700    8.7310    4.0610 C.3   181  ASP181      0.1424
     97  CG         4.1580    9.0510    4.8190 C.2   181  ASP181      0.3668
     98  OD1        4.8550    8.1120    5.2750 O.co2 181  ASP181     -0.2456
     99  OD2        4.4800   10.2560    4.9270 O.co2 181  ASP181     -0.2456
    100  N          2.8790    7.0270    6.6840 N.am  182  SER182     -0.1938
    101  CA         2.6140    6.9490    8.1120 C.3   182  SER182      0.2055
    102  C          2.4160    8.3980    8.5740 C.2   182  SER182      0.2643
    103  O          3.0620    9.3140    8.0650 O.2   182  SER182     -0.2714
    104  CB         3.7850    6.2790    8.8520 C.3   182  SER182      0.2130
    105  OG         5.0290    6.9130    8.5990 O.3   182  SER182     -0.2179
    106  N          1.5100    8.6100    9.5190 N.am  183  CYS183     -0.1953
    107  CA         1.2310    9.9600    9.9940 C.3   183  CYS183      0.1843
    108  C          1.2810   10.0430   11.5220 C.2   183  CYS183      0.2625
    109  O          1.5770    9.0560   12.2060 O.2   183  CYS183     -0.2714
    110  CB        -0.1500   10.3840    9.4900 C.3   183  CYS183      0.0997
    111  SG        -0.4100   12.1550    9.2750 S.3   183  CYS183     -0.0797
    112  N          1.0030   11.2310   12.0520 N.am  184  GLN184     -0.1963
    113  CA         0.9920   11.4380   13.4980 C.3   184  GLN184      0.1733
    114  C          0.1650   10.3270   14.1530 C.2   184  GLN184      0.2616
    115  O         -0.8730    9.9350   13.6260 O.2   184  GLN184     -0.2715
    116  CB         0.3860   12.8080   13.8300 C.3   184  GLN184      0.0408
    117  CG         1.3740   13.9780   13.8010 C.3   184  GLN184      0.0908
    118  CD         2.1000   14.1200   12.4730 C.2   184  GLN184      0.2608
    119  OE1        1.4700   14.1830   11.4180 O.2   184  GLN184     -0.2717
    120  NE2        3.4300   14.1790   12.5220 N.am  184  GLN184     -0.0878
    121  N          0.6350    9.8120   15.2870 N.am  185  GLY185     -0.1955
    122  CA        -0.0920    8.7520   15.9650 C.3   185  GLY185      0.1869
    123  C          0.3510    7.3600   15.5500 C.2   185  GLY185      0.2309
    124  O         -0.0980    6.3600   16.1210 O.2   185  GLY185     -0.2863
    125  N          3.8270    6.7790   15.0460 N.3   187  SER187     -0.1217
    126  CA         5.2040    6.6430   15.5180 C.3   187  SER187      0.1889
    127  C          5.2960    5.4990   16.5130 C.2   187  SER187      0.2288
    128  O          4.4190    5.3350   17.3630 O.2   187  SER187     -0.2866
    129  CB         5.6620    7.9140   16.2090 C.3   187  SER187      0.2089
    130  OG         5.6200    9.0250   15.3380 O.3   187  SER187     -0.2183
    131  N          8.1960    3.7230   12.6350 N.3   205  THR205     -0.1203
    132  CA         7.6630    5.0180   12.2140 C.3   205  THR205      0.1994
    133  C          8.2620    6.1050   13.0920 C.2   205  THR205      0.2619
    134  O          8.0180    6.1390   14.3000 O.2   205  THR205     -0.2717
    135  CB         6.1170    5.0420   12.3180 C.3   205  THR205      0.1784
    136  OG1        5.5810    3.9330   11.5940 O.3   205  THR205     -0.2211
    137  CG2        5.5520    6.3280   11.7500 C.3   205  THR205      0.0376
    138  N          9.0380    6.9970   12.4790 N.am  206  SER206     -0.1937
    139  CA         9.7080    8.0590   13.2150 C.3   206  SER206      0.2055
    140  C          9.2780    9.4870   12.9020 C.2   206  SER206      0.2643
    141  O          8.7040   10.1560   13.7580 O.2   206  SER206     -0.2714
    142  CB        11.2220    7.9300   13.0270 C.3   206  SER206      0.2130
    143  OG        11.9150    8.9020   13.7870 O.3   206  SER206     -0.2179
    144  N          9.5540    9.9620   11.6910 N.am  207  PHE207     -0.1959
    145  CA         9.1980   11.3360   11.3320 C.3   207  PHE207      0.1771
    146  C          9.1190   11.5840    9.8240 C.2   207  PHE207      0.2620
    147  O          9.2750   10.6640    9.0190 O.2   207  PHE207     -0.2715
    148  CB        10.2180   12.3030   11.9430 C.3   207  PHE207      0.0574
    149  CG        11.5370   12.3480   11.2040 C.ar  207  PHE207     -0.0200
    150  CD1       11.7110   13.2010   10.1090 C.ar  207  PHE207     -0.0042
    151  CD2       12.5960   11.5230   11.5860 C.ar  207  PHE207     -0.0042
    152  CE1       12.9170   13.2320    9.4060 C.ar  207  PHE207     -0.0003
    153  CE2       13.8080   11.5440   10.8900 C.ar  207  PHE207     -0.0003
    154  CZ        13.9680   12.4010    9.7970 C.ar  207  PHE207     -0.0000
    155  N          8.8840   12.8430    9.4610 N.am  208  GLY208     -0.1940
    156  CA         8.7880   13.2270    8.0650 C.3   208  GLY208      0.2014
    157  C          8.0320   14.5310    7.9000 C.2   208  GLY208      0.2639
    158  O          7.2590   14.9220    8.7750 O.2   208  GLY208     -0.2714
    159  N          8.2560   15.2110    6.7780 N.am  209  TYR209     -0.1959
    160  CA         7.5830   16.4790    6.5060 C.3   209  TYR209      0.1771
    161  C          6.1300   16.1910    6.1670 C.2   209  TYR209      0.2619
    162  O          5.8240   15.7300    5.0700 O.2   209  TYR209     -0.2715
    163  CB         8.2490   17.2040    5.3280 C.3   209  TYR209      0.0574
    164  CG         7.7270   18.6120    5.1070 C.ar  209  TYR209     -0.0198
    165  CD1        7.8710   19.5940    6.0910 C.ar  209  TYR209     -0.0009
    166  CD2        7.0810   18.9610    3.9200 C.ar  209  TYR209     -0.0009
    167  CE1        7.3860   20.8910    5.8980 C.ar  209  TYR209      0.0417
    168  CE2        6.5910   20.2540    3.7190 C.ar  209  TYR209      0.0417
    169  CZ         6.7480   21.2140    4.7120 C.ar  209  TYR209      0.1957
    170  OH         6.2740   22.4940    4.5130 O.3   209  TYR209     -0.2866
    171  N          5.2340   16.4650    7.1070 N.am  210  GLN210     -0.1963
    172  CA         3.8220   16.2060    6.8890 C.3   210  GLN210      0.1733
    173  C          3.6020   14.7420    6.5260 C.2   210  GLN210      0.2616
    174  O          4.4090   13.8870    6.8930 O.2   210  GLN210     -0.2715
    175  CB         3.2780   17.1260    5.8000 C.3   210  GLN210      0.0408
    176  CG         3.1890   18.5770    6.2440 C.3   210  GLN210      0.0908
    177  CD         2.4520   19.4550    5.2540 C.2   210  GLN210      0.2608
    178  OE1        1.5820   18.9850    4.5140 O.2   210  GLN210     -0.2717
    179  NE2        2.7800   20.7410    5.2500 N.am  210  GLN210     -0.0878
    180  N          2.5230   14.4450    5.8070 N.am  211  CYS211     -0.1968
    181  CA         2.2200   13.0630    5.4530 C.3   211  CYS211      0.1712
    182  C          1.5650   12.9030    4.0850 C.2   211  CYS211      0.2296
    183  O          0.7660   13.7350    3.6730 O.2   211  CYS211     -0.2864
    184  CB         1.2990   12.4620    6.5220 C.3   211  CYS211      0.0983
    185  SG         1.7930   12.8750    8.2230 S.3   211  CYS211     -0.0798
    186  N          8.2170    9.0460    4.2010 N.3   218  GLY218     -0.1210
    187  CA         8.1680    8.9250    5.6410 C.3   218  GLY218      0.1956
    188  C          9.4740    8.3110    6.0950 C.2   218  GLY218      0.2611
    189  O          9.9660    7.3640    5.4720 O.2   218  GLY218     -0.2717
    190  N         10.0440    8.8610    7.1650 N.am  219  VAL219     -0.1979
    191  CA        11.2990    8.3580    7.7110 C.3   219  VAL219      0.1595
    192  C         11.0460    7.3800    8.8600 C.2   219  VAL219      0.2287
    193  O         10.1430    7.5620    9.6680 O.2   219  VAL219     -0.2864
    194  CB        12.2010    9.5070    8.2380 C.3   219  VAL219      0.0276
    195  CG1       13.5560    8.9460    8.6280 C.3   219  VAL219      0.0022
    196  CG2       12.3570   10.6050    7.1790 C.3   219  VAL219      0.0022
@<TRIPOS>BOND
     1    92    93    1
     2   183   182    2
     3   168   166   ar
     4   168   169   ar
     5   166   164   ar
     6    96    93    1
     7    96    97    1
     8   182   181    1
     9   186   187    1
    10    93    94    1
    11   170   169    1
    12   178   177    2
    13   169   167   ar
    14    97    99   ar
    15    97    98   ar
    16   162   161    2
    17   164   163    1
    18   164   165   ar
    19   179   177   am
    20   177   176    1
    21   163   160    1
    22   181   180    1
    23   181   184    1
    24   189   188    2
    25   187   188    1
    26   175   176    1
    27   175   172    1
    28    94    95    2
    29    94   100   am
    30   180   173   am
    31   167   165   ar
    32    83    82    2
    33   188   190   am
    34   161   160    1
    35   161   171   am
    36    80    81    1
    37   160   159    1
    38   184   185    1
    39   173   172    1
    40   173   174    2
    41   100   101    1
    42    86    88   ar
    43    86    85   ar
    44   159   157   am
    45    88    90   ar
    46   172   171    1
    47    68    69    1
    48    72    73    1
    49    72    69    1
    50   190   191    1
    51   196   194    1
    52    82    81    1
    53    81    84    1
    54    75    73   ar
    55    75    77   ar
    56   191   194    1
    57   191   192    1
    58    84    85    1
    59    73    74   ar
    60   157   156    1
    61   157   158    2
    62    69    70    1
    63    85    87   ar
    64   156   155    1
    65   103   102    2
    66    90    91    1
    67    90    89   ar
    68   101   102    1
    69   101   104    1
    70    71    70    2
    71   185   111    1
    72   194   195    1
    73    77    78   ar
    74   102   106   am
    75   105   104    1
    76    74    76   ar
    77   192   193    2
    78   147   146    2
    79    87    89   ar
    80   111   110    1
    81    78    76   ar
    82    78    79    1
    83   152   154   ar
    84   152   150   ar
    85   155   146   am
    86   110   107    1
    87   106   107    1
    88   154   153   ar
    89   146   145    1
    90   107   108    1
    91   150   149   ar
    92   153   151   ar
    93   149   151   ar
    94   149   148    1
    95   145   144    1
    96   145   148    1
    97   119   118    2
    98   108   112   am
    99   108   109    2
   100   136   135    1
   101   144   140   am
   102   137   135    1
   103   112   113    1
   104   132   135    1
   105   132   131    1
   106   132   133    1
   107   118   120   am
   108   118   117    1
   109   138   133   am
   110   138   139    1
   111   140   139    1
   112   140   141    2
   113    57    58    1
   114    57    56    1
   115   142   139    1
   116   142   143    1
   117   133   134    2
   118    58    59    1
   119   113   116    1
   120   113   114    1
   121   115   114    2
   122   117   116    1
   123    54    53    2
   124    55    56    1
   125    55    52    1
   126   114   121   am
   127    53    52    1
   128   125   126    1
   129    52    51    1
   130   121   122    1
   131   130   129    1
   132   126   129    1
   133   126   127    1
   134   123   122    1
   135   123   124    2
   136    64    65    1
   137    64    61    1
   138    67    65   ar
   139   127   128    2
   140    60    61    1
   141    63    62    2
   142    22    23   ar
   143    22    20   ar
   144    23    21   ar
   145    65    66   ar
   146    61    62    1
   147    45    44    2
   148    20    19   ar
   149    21    19   ar
   150    44    43    1
   151    19    18    1
   152    10     9    1
   153    10    11    2
   154    38    36   ar
   155    38    40   ar
   156    18    15    1
   157    43    42    1
   158    43    46    1
   159     9    12    1
   160     9     8    1
   161     4     3    2
   162    36    35   ar
   163    29    28    1
   164    13    12    1
   165    41    40    1
   166    40    39   ar
   167    47    46    1
   168    47    48    1
   169     3     8   am
   170     3     2    1
   171    14    15    1
   172    31    32    1
   173    31    30    1
   174    31    34    1
   175    32    33    2
   176    15    16    1
   177    35    34    1
   178    35    37   ar
   179    16    24   am
   180    16    17    2
   181    24    25    1
   182     2     1    1
   183     2     5    1
   184    50    49    1
   185    49    48    1
   186    28    25    1
   187    39    37   ar
   188    25    26    1
   189     5     6    1
   190     5     7    1
   191    26    27    2
