@<TRIPOS>MOLECULE
tmp/1ekoA01.pdb
 146 148 0 0 0
SMALL
GASTEIGER

@<TRIPOS>ATOM
      1  N         58.1990   32.6140   88.8590 N.3    19  TRP19      -0.1241
      2  CA        59.5590   32.7960   88.3600 C.3    19  TRP19       0.1605
      3  C         60.1440   31.4390   88.0400 C.2    19  TRP19       0.2264
      4  O         60.1580   30.5310   88.8760 O.2    19  TRP19      -0.2867
      5  CB        60.4450   33.5010   89.3870 C.3    19  TRP19       0.0550
      6  CG        61.8910   33.5530   88.9900 C.ar   19  TRP19       0.0003
      7  CD1       62.3930   33.8160   87.7470 C.ar   19  TRP19       0.0946
      8  CD2       63.0230   33.3020   89.8350 C.ar   19  TRP19       0.0152
      9  NE1       63.7660   33.7430   87.7650 N.ar   19  TRP19      -0.2442
     10  CE2       64.1790   33.4290   89.0330 C.ar   19  TRP19       0.0810
     11  CE3       63.1720   32.9800   91.1940 C.ar   19  TRP19       0.0012
     12  CZ2       65.4710   33.2440   89.5460 C.ar   19  TRP19       0.0191
     13  CZ3       64.4540   32.7970   91.7050 C.ar   19  TRP19       0.0001
     14  CH2       65.5870   32.9290   90.8810 C.ar   19  TRP19       0.0015
     15  N         60.0120   40.6900   84.1940 N.3    46  VAL46      -0.1231
     16  CA        61.2890   40.0190   84.0210 C.3    46  VAL46       0.1692
     17  C         61.2320   38.4910   83.9620 C.2    46  VAL46       0.2592
     18  O         62.2020   37.8460   83.5740 O.2    46  VAL46      -0.2718
     19  CB        62.2870   40.4510   85.1260 C.3    46  VAL46       0.0266
     20  CG1       62.0070   39.6960   86.4170 C.3    46  VAL46       0.0020
     21  CG2       63.7030   40.2150   84.6510 C.3    46  VAL46       0.0020
     22  N         60.1210   37.8630   84.3430 N.am   47  TYR47      -0.1976
     23  CA        60.0210   36.4030   84.2560 C.3    47  TYR47       0.1639
     24  C         59.7840   35.9580   82.8130 C.2    47  TYR47       0.2290
     25  O         59.9320   34.7810   82.4670 O.2    47  TYR47      -0.2864
     26  CB        58.8780   35.8620   85.1150 C.3    47  TYR47       0.0560
     27  CG        59.0140   36.1320   86.5900 C.ar   47  TYR47      -0.0198
     28  CD1       60.1650   36.7170   87.1080 C.ar   47  TYR47      -0.0009
     29  CD2       57.9530   35.8790   87.4560 C.ar   47  TYR47      -0.0009
     30  CE1       60.2530   37.0560   88.4470 C.ar   47  TYR47       0.0417
     31  CE2       58.0290   36.2140   88.8000 C.ar   47  TYR47       0.0417
     32  CZ        59.1820   36.8080   89.2900 C.ar   47  TYR47       0.1957
     33  OH        59.2510   37.1750   90.6130 O.3    47  TYR47      -0.2866
     34  N         55.5890   43.2790   88.7690 N.3    76  LYS76      -0.1245
     35  CA        56.6400   44.1710   89.2710 C.3    76  LYS76       0.1561
     36  C         57.3980   44.9480   88.2000 C.2    76  LYS76       0.2260
     37  O         57.6310   44.4740   87.0880 O.2    76  LYS76      -0.2867
     38  CB        57.6650   43.3770   90.1120 C.3    76  LYS76       0.0271
     39  CG        57.2760   41.9250   90.4220 C.3    76  LYS76       0.0035
     40  CD        57.6830   41.5110   91.8290 C.3    76  LYS76       0.0206
     41  CE        57.9710   40.0170   91.9310 C.3    76  LYS76       0.1093
     42  NZ        56.7440   39.1860   91.9270 N.3    76  LYS76      -0.1314
     43  N         60.6180   46.2880   86.5330 N.3    78  TRP78      -0.1241
     44  CA        62.0120   45.8490   86.4820 C.3    78  TRP78       0.1605
     45  C         63.0210   46.9900   86.5860 C.2    78  TRP78       0.2264
     46  O         62.7250   48.1530   86.3080 O.2    78  TRP78      -0.2867
     47  CB        62.2710   45.0130   85.2260 C.3    78  TRP78       0.0550
     48  CG        63.6520   44.4010   85.1980 C.ar   78  TRP78       0.0003
     49  CD1       64.6130   44.5820   84.2340 C.ar   78  TRP78       0.0946
     50  CD2       64.2590   43.5970   86.2180 C.ar   78  TRP78       0.0152
     51  NE1       65.7760   43.9500   84.5970 N.ar   78  TRP78      -0.2442
     52  CE2       65.5900   43.3400   85.8110 C.ar   78  TRP78       0.0810
     53  CE3       63.8110   43.0740   87.4420 C.ar   78  TRP78       0.0012
     54  CZ2       66.4780   42.5790   86.5830 C.ar   78  TRP78       0.0191
     55  CZ3       64.6940   42.3170   88.2060 C.ar   78  TRP78       0.0001
     56  CH2       66.0140   42.0810   87.7730 C.ar   78  TRP78       0.0015
     57  N         60.5670   46.1060   91.7130 N.3   109  HIS109     -0.1226
     58  CA        61.2790   44.8450   91.9230 C.3   109  HIS109      0.1752
     59  C         62.4990   44.8640   92.8410 C.2   109  HIS109      0.2596
     60  O         62.6490   44.0130   93.7260 O.2   109  HIS109     -0.2718
     61  CB        61.6780   44.2550   90.5740 C.3   109  HIS109      0.0759
     62  CG        61.5950   42.7610   90.5230 C.ar  109  HIS109      0.0818
     63  ND1       61.0920   42.0810   89.4350 N.ar  109  HIS109     -0.2268
     64  CD2       61.9670   41.8170   91.4180 C.ar  109  HIS109      0.1154
     65  CE1       61.1610   40.7820   89.6610 C.ar  109  HIS109      0.1986
     66  NE2       61.6880   40.5950   90.8580 N.ar  109  HIS109     -0.2212
     67  N         63.4060   45.8140   92.6240 N.am  110  TRP110     -0.1976
     68  CA        64.6260   45.9580   93.4110 C.3   110  TRP110      0.1640
     69  C         64.8640   47.4510   93.5740 C.2   110  TRP110      0.2290
     70  O         64.4160   48.2430   92.7440 O.2   110  TRP110     -0.2864
     71  CB        65.8230   45.3450   92.6670 C.3   110  TRP110      0.0576
     72  CG        65.9000   43.8340   92.7260 C.ar  110  TRP110      0.0006
     73  CD1       65.3100   42.9470   91.8670 C.ar  110  TRP110      0.0946
     74  CD2       66.5820   43.0420   93.7100 C.ar  110  TRP110      0.0152
     75  NE1       65.5790   41.6570   92.2590 N.ar  110  TRP110     -0.2442
     76  CE2       66.3560   41.6880   93.3870 C.ar  110  TRP110      0.0810
     77  CE3       67.3580   43.3480   94.8340 C.ar  110  TRP110      0.0012
     78  CZ2       66.8800   40.6410   94.1440 C.ar  110  TRP110      0.0191
     79  CZ3       67.8790   42.3030   95.5880 C.ar  110  TRP110      0.0001
     80  CH2       67.6360   40.9690   95.2400 C.ar  110  TRP110      0.0015
     81  N         69.7690   42.7320   82.2580 N.3   121  PHE121     -0.1241
     82  CA        70.9490   42.8050   83.1170 C.3   121  PHE121      0.1605
     83  C         72.1000   43.3540   82.2820 C.2   121  PHE121      0.2264
     84  O         72.9460   42.5940   81.8080 O.2   121  PHE121     -0.2867
     85  CB        71.3140   41.4190   83.6390 C.3   121  PHE121      0.0534
     86  CG        70.3790   40.8980   84.6950 C.ar  121  PHE121     -0.0203
     87  CD1       70.4920   41.3240   86.0130 C.ar  121  PHE121     -0.0042
     88  CD2       69.3960   39.9620   84.3740 C.ar  121  PHE121     -0.0042
     89  CE1       69.6410   40.8260   86.9960 C.ar  121  PHE121     -0.0003
     90  CE2       68.5390   39.4570   85.3500 C.ar  121  PHE121     -0.0003
     91  CZ        68.6600   39.8860   86.6630 C.ar  121  PHE121     -0.0000
     92  N         62.6120   43.5750   98.2070 N.3   159  ASN159     -0.1240
     93  CA        64.0440   43.6130   98.4990 C.3   159  ASN159      0.1653
     94  C         64.5120   44.9830   98.9700 C.2   159  ASN159      0.2266
     95  O         65.6190   45.4220   98.6640 O.2   159  ASN159     -0.2867
     96  CB        64.8650   43.2190   97.2660 C.3   159  ASN159      0.1155
     97  CG        64.5920   41.8080   96.8100 C.2   159  ASN159      0.2627
     98  OD1       64.7560   40.8490   97.5700 O.2   159  ASN159     -0.2716
     99  ND2       64.1750   41.6680   95.5560 N.am  159  ASN159     -0.0877
    100  N         59.0850   35.2340  100.0090 N.3   208  TYR208     -0.1241
    101  CA        59.3080   34.5070   98.7640 C.3   208  TYR208      0.1605
    102  C         60.3520   33.4200   98.9260 C.2   208  TYR208      0.2264
    103  O         61.1220   33.3970   99.8880 O.2   208  TYR208     -0.2867
    104  CB        59.7050   35.4590   97.6360 C.3   208  TYR208      0.0534
    105  CG        61.0500   36.1520   97.7440 C.ar  208  TYR208     -0.0201
    106  CD1       62.2450   35.4290   97.7080 C.ar  208  TYR208     -0.0009
    107  CD2       61.1270   37.5440   97.7060 C.ar  208  TYR208     -0.0009
    108  CE1       63.4840   36.0830   97.6060 C.ar  208  TYR208      0.0417
    109  CE2       62.3450   38.2000   97.6040 C.ar  208  TYR208      0.0417
    110  CZ        63.5210   37.4690   97.5400 C.ar  208  TYR208      0.1957
    111  OH        64.7120   38.1270   97.3090 O.3   208  TYR208     -0.2866
    112  N         69.0240   28.9790   89.2190 N.3   217  PRO217     -0.2102
    113  CA        70.1950   28.7770   88.3600 C.3   217  PRO217      0.1504
    114  C         71.5270   28.5590   89.0800 C.2   217  PRO217      0.2575
    115  O         72.2150   27.5600   88.8720 O.2   217  PRO217     -0.2718
    116  CB        70.2230   30.0340   87.4970 C.3   217  PRO217      0.0282
    117  CG        68.8060   30.4730   87.4460 C.3   217  PRO217      0.0208
    118  CD        68.2390   30.1530   88.7990 C.3   217  PRO217      0.0893
    119  N         71.9190   29.4910   89.9440 N.am  218  TRP218     -0.1977
    120  CA        73.1880   29.4110   90.6700 C.3   218  TRP218      0.1640
    121  C         73.3020   28.3400   91.7530 C.2   218  TRP218      0.2290
    122  O         74.3420   28.2050   92.4010 O.2   218  TRP218     -0.2864
    123  CB        73.5020   30.7630   91.3020 C.3   218  TRP218      0.0576
    124  CG        72.3420   31.3600   92.0360 C.ar  218  TRP218      0.0006
    125  CD1       72.1320   31.3530   93.3880 C.ar  218  TRP218      0.0946
    126  CD2       71.2500   32.0880   91.4630 C.ar  218  TRP218      0.0152
    127  NE1       70.9780   32.0370   93.6910 N.ar  218  TRP218     -0.2442
    128  CE2       70.4170   32.4990   92.5300 C.ar  218  TRP218      0.0810
    129  CE3       70.8950   32.4360   90.1510 C.ar  218  TRP218      0.0012
    130  CZ2       69.2510   33.2410   92.3260 C.ar  218  TRP218      0.0191
    131  CZ3       69.7360   33.1720   89.9480 C.ar  218  TRP218      0.0001
    132  CH2       68.9270   33.5680   91.0330 C.ar  218  TRP218      0.0015
    133  N         69.1980   34.5310   97.2800 N.3   297  CYS297     -0.1235
    134  CA        68.9830   35.5990   96.3010 C.3   297  CYS297      0.1677
    135  C         69.6580   36.8980   96.7670 C.2   297  CYS297      0.2270
    136  O         69.0430   37.7460   97.4140 O.2   297  CYS297     -0.2867
    137  CB        67.4740   35.8370   96.1260 C.3   297  CYS297      0.0956
    138  SG        66.8960   36.0520   94.4220 S.3   297  CYS297     -0.0801
    139  N         71.7700   38.9190   94.4990 N.3   299  LEU299     -0.1245
    140  CA        72.1920   39.7420   93.3570 C.3   299  LEU299      0.1561
    141  C         73.6230   40.2940   93.5270 C.2   299  LEU299      0.2260
    142  O         73.8880   41.5010   93.4330 O.2   299  LEU299     -0.2867
    143  CB        71.2040   40.8960   93.1640 C.3   299  LEU299      0.0270
    144  CG        70.9720   41.4230   91.7470 C.3   299  LEU299      0.0019
    145  CD1       70.1780   40.4190   90.9340 C.3   299  LEU299      0.0001
    146  CD2       70.2280   42.7470   91.8250 C.3   299  LEU299      0.0001
@<TRIPOS>BOND
     1    84    83    2
     2    81    82    1
     3    83    82    1
     4    25    24    2
     5    24    23    1
     6    82    85    1
     7    18    17    2
     8    85    86    1
     9    17    16    1
    10    17    22   am
    11    16    15    1
    12    16    19    1
    13    49    51   ar
    14    49    48   ar
    15    23    22    1
    16    23    26    1
    17    88    86   ar
    18    88    90   ar
    19    51    52   ar
    20    21    19    1
    21    86    87   ar
    22    26    27    1
    23    19    20    1
    24    48    47    1
    25    48    50   ar
    26    47    44    1
    27    90    91   ar
    28    52    50   ar
    29    52    54   ar
    30    87    89   ar
    31    50    53   ar
    32    46    45    2
    33    44    43    1
    34    44    45    1
    35    54    56   ar
    36    27    28   ar
    37    27    29   ar
    38    91    89   ar
    39    37    36    2
    40    28    30   ar
    41    53    55   ar
    42   117   116    1
    43   117   118    1
    44    29    31   ar
    45   116   113    1
    46     7     9   ar
    47     7     6   ar
    48     9    10   ar
    49    56    55   ar
    50     3     2    1
    51     3     4    2
    52    36    35    1
    53   113   114    1
    54   113   112    1
    55     2     1    1
    56     2     5    1
    57    30    32   ar
    58    34    35    1
    59   118   112    1
    60    31    32   ar
    61   115   114    2
    62     6     5    1
    63     6     8   ar
    64    10    12   ar
    65    10     8   ar
    66   114   119   am
    67    35    38    1
    68    32    33    1
    69    63    65   ar
    70    63    62   ar
    71    12    14   ar
    72    65    66   ar
    73     8    11   ar
    74   119   120    1
    75   131   129   ar
    76   131   132   ar
    77    38    39    1
    78   129   126   ar
    79    39    40    1
    80    62    61    1
    81    62    64   ar
    82    61    58    1
    83   120   123    1
    84   120   121    1
    85    66    64   ar
    86    14    13   ar
    87   145   144    1
    88   132   130   ar
    89    11    13   ar
    90   123   124    1
    91   126   124   ar
    92   126   128   ar
    93    57    58    1
    94   144   146    1
    95   144   143    1
    96   121   122    2
    97    40    41    1
    98    73    75   ar
    99    73    72   ar
   100    58    59    1
   101    42    41    1
   102   124   125   ar
   103    75    76   ar
   104   130   128   ar
   105   128   127   ar
   106    67    59   am
   107    67    68    1
   108    71    72    1
   109    71    68    1
   110    72    74   ar
   111    70    69    2
   112    59    60    2
   113   143   140    1
   114   140   141    1
   115   140   139    1
   116    76    74   ar
   117    76    78   ar
   118   125   127   ar
   119    68    69    1
   120   142   141    2
   121    74    77   ar
   122    78    80   ar
   123   138   137    1
   124    77    79   ar
   125    80    79   ar
   126    99    97   am
   127   137   134    1
   128   134   135    1
   129   134   133    1
   130   135   136    2
   131    97    96    1
   132    97    98    2
   133    96    93    1
   134   111   110    1
   135   110   109   ar
   136   110   108   ar
   137   109   107   ar
   138   108   106   ar
   139   104   105    1
   140   104   101    1
   141   107   105   ar
   142   106   105   ar
   143    92    93    1
   144    93    94    1
   145    95    94    2
   146   101   102    1
   147   101   100    1
   148   102   103    2
