@<TRIPOS>MOLECULE
tmp/1eksA00.pdb
 76 72 0 0 0
SMALL
GASTEIGER

@<TRIPOS>ATOM
      1  N         61.3320   34.2400   32.7180 N.3     2  VAL2       -0.1245
      2  CA        61.5950   34.6190   31.3270 C.3     2  VAL2        0.1561
      3  C         60.3590   34.4460   30.4460 C.2     2  VAL2        0.2260
      4  O         59.6080   33.4880   30.6000 O.2     2  VAL2       -0.2867
      5  CB        62.7250   33.7390   30.7160 C.3     2  VAL2        0.0252
      6  CG1       63.2180   34.4340   29.4240 C.3     2  VAL2        0.0019
      7  CG2       63.9330   33.6370   31.6710 C.3     2  VAL2        0.0019
      8  N         59.5390   31.1670   40.1830 N.3    61  LEU61      -0.1231
      9  CA        59.6140   31.5720   38.7980 C.3    61  LEU61       0.1693
     10  C         59.2580   30.4970   37.7980 C.2    61  LEU61       0.2592
     11  O         59.4780   30.7150   36.6000 O.2    61  LEU61      -0.2718
     12  CB        61.0150   32.1730   38.5450 C.3    61  LEU61       0.0284
     13  CG        61.3220   33.4170   39.4060 C.3    61  LEU61       0.0019
     14  CD1       62.7300   33.9310   39.1830 C.3    61  LEU61       0.0001
     15  CD2       60.3400   34.5370   39.0910 C.3    61  LEU61       0.0001
     16  N         58.6250   29.4070   38.2040 N.am   62  CYS62      -0.1956
     17  CA        58.0840   28.4620   37.2240 C.3    62  CYS62       0.1843
     18  C         56.8130   29.0200   36.5720 C.2    62  CYS62       0.2625
     19  O         56.1510   29.8870   37.1440 O.2    62  CYS62      -0.2714
     20  CB        57.8040   27.0800   37.8320 C.3    62  CYS62       0.0997
     21  SG        59.2950   26.0670   37.8140 S.3    62  CYS62      -0.0797
     22  N         56.4870   28.5280   35.3800 N.am   63  HIS63      -0.1973
     23  CA        55.2960   28.9690   34.6640 C.3    63  HIS63       0.1656
     24  C         54.1690   27.9580   34.8220 C.2    63  HIS63       0.2291
     25  O         54.3610   26.7520   34.7260 O.2    63  HIS63      -0.2864
     26  CB        55.5570   29.1130   33.1620 C.3    63  HIS63       0.0771
     27  CG        56.4430   30.2500   32.7780 C.ar   63  HIS63       0.0820
     28  ND1       57.7640   30.0930   32.4120 N.ar   63  HIS63      -0.2267
     29  CD2       56.1940   31.5750   32.6870 C.ar   63  HIS63       0.1154
     30  CE1       58.3070   31.2550   32.1250 C.ar   63  HIS63       0.1986
     31  NE2       57.3710   32.1740   32.2930 N.ar   63  HIS63      -0.2212
     32  N         51.0210   25.6360   33.9430 N.3    65  LEU65      -0.1245
     33  CA        50.7580   24.8860   32.7150 C.3    65  LEU65       0.1561
     34  C         49.7950   23.7140   32.9140 C.2    65  LEU65       0.2260
     35  O         49.5820   23.1940   34.0000 O.2    65  LEU65      -0.2867
     36  CB        51.9710   24.4060   31.9580 C.3    65  LEU65       0.0270
     37  CG        53.1430   23.5670   32.3940 C.3    65  LEU65       0.0019
     38  CD1       54.2640   24.4140   32.9990 C.3    65  LEU65       0.0001
     39  CD2       52.7930   22.3880   33.2870 C.3    65  LEU65       0.0001
     40  N         56.7670   25.5730   27.1320 N.3    95  THR95      -0.1203
     41  CA        57.8030   25.2260   28.1010 C.3    95  THR95       0.1994
     42  C         57.9140   23.7500   28.4270 C.2    95  THR95       0.2618
     43  O         56.9270   23.0210   28.3780 O.2    95  THR95      -0.2717
     44  CB        57.6010   25.9920   29.4320 C.3    95  THR95       0.1784
     45  OG1       56.2790   26.5420   29.5110 O.3    95  THR95      -0.2211
     46  CG2       58.6750   27.0630   29.5450 C.3    95  THR95       0.0376
     47  N         59.1030   23.3100   28.8380 N.am   96  GLY96      -0.1956
     48  CA        59.2880   21.9360   29.2800 C.3    96  GLY96       0.1869
     49  C         58.7660   21.6190   30.6830 C.2    96  GLY96       0.2309
     50  O         58.2720   22.3930   31.5110 O.2    96  GLY96      -0.2863
     51  N         60.4640   19.6960   33.3320 N.3    98  GLU98      -0.1231
     52  CA        61.5430   19.0450   34.0680 C.3    98  GLU98       0.1699
     53  C         61.3090   19.2660   35.5620 C.2    98  GLU98       0.2592
     54  O         61.6000   18.3730   36.3470 O.2    98  GLU98      -0.2718
     55  CB        62.9030   19.6230   33.6980 C.3    98  GLU98       0.0402
     56  CG        63.2650   19.4380   32.2390 C.3    98  GLU98       0.1161
     57  CD        63.0840   20.6910   31.4120 C.2    98  GLU98       0.3649
     58  OE1       63.6750   20.6430   30.3050 O.co2  98  GLU98      -0.2457
     59  OE2       62.4210   21.6790   31.7830 O.co2  98  GLU98      -0.2457
     60  N         60.8060   20.4450   35.9090 N.am   99  MET99      -0.1965
     61  CA        60.5450   20.7680   37.3030 C.3    99  MET99       0.1736
     62  C         59.3350   20.0030   37.8330 C.2    99  MET99       0.2616
     63  O         59.3850   19.5210   38.9690 O.2    99  MET99      -0.2715
     64  CB        60.4260   22.2560   37.5470 C.3    99  MET99       0.0427
     65  CG        61.6480   23.1070   37.2890 C.3    99  MET99       0.0599
     66  SD        63.2190   22.3320   37.6750 S.3    99  MET99      -0.1393
     67  CE        63.1890   22.2290   39.4480 C.3    99  MET99       0.0692
     68  N         58.3390   19.7190   37.0200 N.am  100  GLU100     -0.1977
     69  CA        57.1620   18.9480   37.3410 C.3   100  GLU100      0.1602
     70  C         57.5090   17.4980   37.6440 C.2   100  GLU100      0.2287
     71  O         56.9390   16.9380   38.5910 O.2   100  GLU100     -0.2864
     72  CB        56.0970   18.9820   36.2310 C.3   100  GLU100      0.0415
     73  CG        55.4130   20.3160   35.9810 C.3   100  GLU100      0.1163
     74  CD        56.2530   21.4690   35.4490 C.2   100  GLU100      0.3649
     75  OE1       57.3660   21.3140   34.9050 O.co2 100  GLU100     -0.2457
     76  OE2       55.7990   22.6360   35.5880 O.co2 100  GLU100     -0.2457
@<TRIPOS>BOND
     1    40    41    1
     2    41    42    1
     3    41    44    1
     4    43    42    2
     5    42    47   am
     6    47    48    1
     7    48    49    1
     8     6     5    1
     9    44    45    1
    10    44    46    1
    11    58    57   ar
    12     3     4    2
    13     3     2    1
    14    49    50    2
    15     5     2    1
    16     5     7    1
    17     2     1    1
    18    57    59   ar
    19    57    56    1
    20    36    37    1
    21    36    33    1
    22    30    31   ar
    23    30    28   ar
    24    56    55    1
    25    31    29   ar
    26    37    38    1
    27    37    39    1
    28    28    27   ar
    29    29    27   ar
    30    33    34    1
    31    33    32    1
    32    27    26    1
    33    34    35    2
    34    26    23    1
    35    51    52    1
    36    55    52    1
    37    52    53    1
    38    23    24    1
    39    23    22    1
    40    25    24    2
    41    75    74   ar
    42    22    18   am
    43    74    76   ar
    44    74    73    1
    45    53    60   am
    46    53    54    2
    47    60    61    1
    48    73    72    1
    49    72    69    1
    50    18    19    2
    51    18    17    1
    52    11    10    2
    53    68    69    1
    54    68    62   am
    55    17    20    1
    56    17    16    1
    57    65    64    1
    58    65    66    1
    59    61    64    1
    60    61    62    1
    61    69    70    1
    62    70    71    2
    63    66    67    1
    64    10    16   am
    65    10     9    1
    66    21    20    1
    67    62    63    2
    68    12     9    1
    69    12    13    1
    70     9     8    1
    71    15    13    1
    72    14    13    1
