@<TRIPOS>MOLECULE
tmp/1ekvB01.pdb
 108 101 0 0 0
SMALL
GASTEIGER

@<TRIPOS>ATOM
      1  N         40.4530   16.6370  -10.0540 N.3    30  PHE30      -0.1241
      2  CA        39.7730   16.5830   -8.7640 C.3    30  PHE30       0.1605
      3  C         38.8510   15.3630   -8.5290 C.2    30  PHE30       0.2264
      4  O         38.1120   14.9400   -9.4200 O.2    30  PHE30      -0.2867
      5  CB        38.9560   17.8510   -8.5520 C.3    30  PHE30       0.0534
      6  CG        38.1320   17.8110   -7.3050 C.ar   30  PHE30      -0.0203
      7  CD1       38.7190   18.0640   -6.0680 C.ar   30  PHE30      -0.0042
      8  CD2       36.7940   17.4040   -7.3520 C.ar   30  PHE30      -0.0042
      9  CE1       37.9990   17.9090   -4.8840 C.ar   30  PHE30      -0.0003
     10  CE2       36.0560   17.2410   -6.1820 C.ar   30  PHE30      -0.0003
     11  CZ        36.6650   17.4940   -4.9310 C.ar   30  PHE30      -0.0000
     12  N         29.2460   15.4370    4.6360 N.3    75  PHE75      -0.1241
     13  CA        30.6540   15.2990    4.3320 C.3    75  PHE75       0.1605
     14  C         31.3180   16.6210    4.5400 C.2    75  PHE75       0.2264
     15  O         30.6560   17.6270    4.7740 O.2    75  PHE75      -0.2867
     16  CB        30.8440   14.8680    2.8660 C.3    75  PHE75       0.0534
     17  CG        30.3280   15.8760    1.8570 C.ar   75  PHE75      -0.0203
     18  CD1       28.9640   16.0440    1.6420 C.ar   75  PHE75      -0.0042
     19  CD2       31.2140   16.6720    1.1320 C.ar   75  PHE75      -0.0042
     20  CE1       28.4890   16.9860    0.7260 C.ar   75  PHE75      -0.0003
     21  CE2       30.7550   17.6090    0.2210 C.ar   75  PHE75      -0.0003
     22  CZ        29.3820   17.7700    0.0140 C.ar   75  PHE75      -0.0000
     23  N         34.9200   19.0730    3.2650 N.3    77  GLY77      -0.1225
     24  CA        35.9450   19.1980    2.2590 C.3    77  GLY77       0.1811
     25  C         36.9500   20.2260    2.6940 C.2    77  GLY77       0.2280
     26  O         36.6140   21.3830    2.9530 O.2    77  GLY77      -0.2866
     27  N         31.8400   22.5820   11.5110 N.3    99  ARG99      -0.1245
     28  CA        30.7870   22.4540   10.5290 C.3    99  ARG99       0.1563
     29  C         30.3130   21.0180   10.4160 C.2    99  ARG99       0.2260
     30  O         29.1170   20.7540   10.3700 O.2    99  ARG99      -0.2867
     31  CB        31.2870   22.9690    9.1760 C.3    99  ARG99       0.0307
     32  CG        30.1910   23.2920    8.2150 C.3    99  ARG99       0.0489
     33  CD        30.6980   24.1570    7.0850 C.3    99  ARG99       0.2205
     34  NE        31.7030   23.4800    6.2790 N.pl3  99  ARG99      -0.0865
     35  CZ        32.3330   24.0440    5.2700 C.cat  99  ARG99       0.5346
     36  NH1       32.0610   25.3030    4.9460 N.pl3  99  ARG99       0.1354
     37  NH2       33.2190   23.3470    4.5780 N.pl3  99  ARG99       0.1354
     38  N         43.1980   16.7250   -1.2490 N.3   141  TYR141     -0.1241
     39  CA        41.8430   17.0260   -0.8050 C.3   141  TYR141      0.1605
     40  C         41.4090   16.0350    0.2370 C.2   141  TYR141      0.2264
     41  O         41.5490   14.8280    0.0540 O.2   141  TYR141     -0.2867
     42  CB        40.8600   17.0090   -1.9600 C.3   141  TYR141      0.0534
     43  CG        39.4890   17.5070   -1.5830 C.ar  141  TYR141     -0.0201
     44  CD1       39.2790   18.8300   -1.2260 C.ar  141  TYR141     -0.0009
     45  CD2       38.3880   16.6550   -1.6330 C.ar  141  TYR141     -0.0009
     46  CE1       37.9810   19.2980   -0.9300 C.ar  141  TYR141      0.0417
     47  CE2       37.1100   17.1030   -1.3450 C.ar  141  TYR141      0.0417
     48  CZ        36.9030   18.4180   -0.9960 C.ar  141  TYR141      0.1957
     49  OH        35.6180   18.8260   -0.7340 O.3   141  TYR141     -0.2866
     50  N         38.4380   14.4610    2.3050 N.3   143  ARG143     -0.1245
     51  CA        37.0160   14.1870    2.2990 C.3   143  ARG143      0.1563
     52  C         36.4340   13.3480    3.4410 C.2   143  ARG143      0.2260
     53  O         36.3370   12.1180    3.3370 O.2   143  ARG143     -0.2867
     54  CB        36.6420   13.5250    0.9890 C.3   143  ARG143      0.0307
     55  CG        35.1810   13.1970    0.9190 C.3   143  ARG143      0.0489
     56  CD        34.3770   14.4590    0.9630 C.3   143  ARG143      0.2205
     57  NE        33.4220   14.3900   -0.1160 N.pl3 143  ARG143     -0.0865
     58  CZ        33.2810   15.2950   -1.0610 C.cat 143  ARG143      0.5346
     59  NH1       34.0280   16.3830   -1.0790 N.pl3 143  ARG143      0.1354
     60  NH2       32.3960   15.0810   -2.0040 N.pl3 143  ARG143      0.1354
     61  N         26.4510   21.0880    5.3680 N.3   202  LYS202     -0.1245
     62  CA        27.0590   20.4270    4.2430 C.3   202  LYS202      0.1561
     63  C         26.5010   19.0060    4.1280 C.2   202  LYS202      0.2260
     64  O         27.1510   18.0250    4.4830 O.2   202  LYS202     -0.2867
     65  CB        28.5740   20.4250    4.4350 C.3   202  LYS202      0.0271
     66  CG        29.3640   19.9360    3.2500 C.3   202  LYS202      0.0035
     67  CD        30.8490   19.9390    3.5470 C.3   202  LYS202      0.0206
     68  CE        31.4940   21.1830    2.9760 C.3   202  LYS202      0.1093
     69  NZ        31.3410   21.2540    1.5250 N.3   202  LYS202     -0.1314
     70  N         23.2060   18.9200   -2.6510 N.3   207  TYR207     -0.1241
     71  CA        23.8280   18.8380   -3.9870 C.3   207  TYR207      0.1605
     72  C         23.1700   18.0240   -5.1130 C.2   207  TYR207      0.2264
     73  O         23.1280   18.4720   -6.2630 O.2   207  TYR207     -0.2867
     74  CB        25.2900   18.3770   -3.8290 C.3   207  TYR207      0.0534
     75  CG        26.0440   19.2280   -2.8450 C.ar  207  TYR207     -0.0201
     76  CD1       25.7920   19.1320   -1.4700 C.ar  207  TYR207     -0.0009
     77  CD2       26.9030   20.2280   -3.2850 C.ar  207  TYR207     -0.0009
     78  CE1       26.3640   20.0190   -0.5700 C.ar  207  TYR207      0.0417
     79  CE2       27.4770   21.1180   -2.3890 C.ar  207  TYR207      0.0417
     80  CZ        27.2020   21.0080   -1.0390 C.ar  207  TYR207      0.1957
     81  OH        27.7730   21.8900   -0.1680 O.3   207  TYR207     -0.2866
     82  N         29.0620   25.5080   -5.5010 N.3   240  THR240     -0.1218
     83  CA        29.8090   25.1750   -4.3050 C.3   240  THR240      0.1862
     84  C         30.7710   26.2880   -3.8850 C.2   240  THR240      0.2287
     85  O         31.9370   26.0320   -3.6140 O.2   240  THR240     -0.2866
     86  CB        30.6150   23.8650   -4.5040 C.3   240  THR240      0.1770
     87  OG1       31.5470   24.0270   -5.5750 O.3   240  THR240     -0.2211
     88  CG2       29.6740   22.7020   -4.8300 C.3   240  THR240      0.0375
     89  N         25.8970   28.3700    2.9860 N.3   266  LEU266     -0.1245
     90  CA        26.8390   27.4860    3.6630 C.3   266  LEU266      0.1561
     91  C         28.0040   28.3390    4.2020 C.2   266  LEU266      0.2260
     92  O         28.5700   29.1440    3.4710 O.2   266  LEU266     -0.2867
     93  CB        27.3530   26.4080    2.6850 C.3   266  LEU266      0.0270
     94  CG        27.9190   25.0720    3.2110 C.3   266  LEU266      0.0019
     95  CD1       28.9410   25.3680    4.2590 C.3   266  LEU266      0.0001
     96  CD2       26.8250   24.1730    3.8040 C.3   266  LEU266      0.0001
     97  N         37.0670   26.0080   -1.1880 N.3   313  THR313     -0.1203
     98  CA        38.3120   25.2760   -1.0590 C.3   313  THR313      0.1994
     99  C         38.8910   24.7880   -2.3750 C.2   313  THR313      0.2617
    100  O         40.0670   24.4550   -2.4370 O.2   313  THR313     -0.2717
    101  CB        38.1370   24.0760   -0.1140 C.3   313  THR313      0.1784
    102  OG1       37.4520   24.5140    1.0520 O.3   313  THR313     -0.2211
    103  CG2       39.4750   23.5060    0.3170 C.3   313  THR313      0.0376
    104  N         38.0880   24.7560   -3.4300 N.am  314  ALA314     -0.1979
    105  CA        38.6050   24.2740   -4.7070 C.3   314  ALA314      0.1597
    106  C         39.6370   25.2040   -5.3090 C.2   314  ALA314      0.2287
    107  O         40.6450   24.7420   -5.8680 O.2   314  ALA314     -0.2864
    108  CB        37.4790   24.0630   -5.7020 C.3   314  ALA314      0.0319
@<TRIPOS>BOND
     1     1     2    1
     2     4     3    2
     3     2     5    1
     4     2     3    1
     5     5     6    1
     6     8     6   ar
     7     8    10   ar
     8     6     7   ar
     9    73    72    2
    10    10    11   ar
    11     7     9   ar
    12   107   106    2
    13   108   105    1
    14    87    86    1
    15    82    83    1
    16   106   105    1
    17    72    71    1
    18    11     9   ar
    19    88    86    1
    20   105   104    1
    21    86    83    1
    22    83    84    1
    23    71    74    1
    24    71    70    1
    25    84    85    2
    26    74    75    1
    27   104    99   am
    28    77    75   ar
    29    77    79   ar
    30    75    76   ar
    31   100    99    2
    32    79    80   ar
    33    99    98    1
    34    60    58    1
    35    42    43    1
    36    42    39    1
    37    45    43   ar
    38    45    47   ar
    39    43    44   ar
    40    76    78   ar
    41    47    48   ar
    42    38    39    1
    43    44    46   ar
    44    97    98    1
    45    59    58    1
    46    58    57    2
    47    98   101    1
    48    80    78   ar
    49    80    81    1
    50    48    46   ar
    51    48    49    1
    52    39    40    1
    53    57    56    1
    54   101   103    1
    55   101   102    1
    56    22    21   ar
    57    22    20   ar
    58    41    40    2
    59    21    19   ar
    60    20    18   ar
    61    55    56    1
    62    55    54    1
    63    54    51    1
    64    19    17   ar
    65    69    68    1
    66    18    17   ar
    67    17    16    1
    68    24    25    1
    69    24    23    1
    70    51    50    1
    71    51    52    1
    72    93    94    1
    73    93    90    1
    74    25    26    2
    75    16    13    1
    76    68    67    1
    77    89    90    1
    78    94    96    1
    79    94    95    1
    80    66    67    1
    81    66    65    1
    82    53    52    2
    83    92    91    2
    84    90    91    1
    85    63    62    1
    86    63    64    2
    87    62    65    1
    88    62    61    1
    89    13    14    1
    90    13    12    1
    91    14    15    2
    92    37    35    1
    93    36    35    1
    94    35    34    2
    95    34    33    1
    96    33    32    1
    97    32    31    1
    98    31    28    1
    99    30    29    2
   100    29    28    1
   101    28    27    1
