@<TRIPOS>MOLECULE
tmp/1ekvA01.pdb
 112 105 0 0 0
SMALL
GASTEIGER

@<TRIPOS>ATOM
      1  N          7.0960   -2.5530   10.2190 N.3    30  PHE30      -0.1241
      2  CA         7.3370   -1.9640    8.9040 C.3    30  PHE30       0.1605
      3  C          8.5510   -2.4190    8.0980 C.2    30  PHE30       0.2264
      4  O          8.4690   -3.4280    7.3860 O.2    30  PHE30      -0.2867
      5  CB         7.3330   -0.4340    8.9420 C.3    30  PHE30       0.0534
      6  CG         7.5010    0.1920    7.5700 C.ar   30  PHE30      -0.0203
      7  CD1        6.5260    0.0160    6.5960 C.ar   30  PHE30      -0.0042
      8  CD2        8.6850    0.8480    7.2240 C.ar   30  PHE30      -0.0042
      9  CE1        6.7240    0.4640    5.3080 C.ar   30  PHE30      -0.0003
     10  CE2        8.9060    1.3090    5.9300 C.ar   30  PHE30      -0.0003
     11  CZ         7.9260    1.1150    4.9640 C.ar   30  PHE30      -0.0000
     12  N         13.8960    6.5570   -4.5690 N.3    75  PHE75      -0.1241
     13  CA        13.2990    5.2760   -4.2720 C.3    75  PHE75       0.1605
     14  C         11.8020    5.3520   -4.4730 C.2    75  PHE75       0.2264
     15  O         11.2390    6.4220   -4.6850 O.2    75  PHE75      -0.2867
     16  CB        13.5860    4.8920   -2.8180 C.3    75  PHE75       0.0534
     17  CG        12.9810    5.8350   -1.8050 C.ar   75  PHE75      -0.0203
     18  CD1       13.5340    7.0920   -1.5800 C.ar   75  PHE75      -0.0042
     19  CD2       11.8460    5.4690   -1.0880 C.ar   75  PHE75      -0.0042
     20  CE1       12.9580    7.9730   -0.6540 C.ar   75  PHE75      -0.0003
     21  CE2       11.2710    6.3290   -0.1750 C.ar   75  PHE75      -0.0003
     22  CZ        11.8240    7.5910    0.0500 C.ar   75  PHE75      -0.0000
     23  N          7.8820    3.4630   -3.2150 N.3    77  GLY77      -0.1225
     24  CA         7.2720    2.6430   -2.1990 C.3    77  GLY77       0.1811
     25  C          5.8830    2.2800   -2.6240 C.2    77  GLY77       0.2280
     26  O          5.0420    3.1440   -2.8550 O.2    77  GLY77      -0.2866
     27  N          6.3970    7.8790  -11.4550 N.3    99  ARG99      -0.1245
     28  CA         7.0330    8.7350  -10.4720 C.3    99  ARG99       0.1563
     29  C          8.5050    8.4450  -10.3520 C.2    99  ARG99       0.2260
     30  O          9.3180    9.3640  -10.2760 O.2    99  ARG99      -0.2867
     31  CB         6.3440    8.5530   -9.1260 C.3    99  ARG99       0.0307
     32  CG         6.6360    9.6590   -8.1510 C.3    99  ARG99       0.0489
     33  CD         5.6300    9.6560   -7.0290 C.3    99  ARG99       0.2205
     34  NE         5.7220    8.4550   -6.2140 N.pl3  99  ARG99      -0.0865
     35  CZ         4.9030    8.1810   -5.2150 C.cat  99  ARG99       0.5346
     36  NH1        3.9190    9.0240   -4.9130 N.pl3  99  ARG99       0.1354
     37  NH2        5.0880    7.0780   -4.5080 N.pl3  99  ARG99       0.1354
     38  N          5.7970   -4.8820    1.2890 N.3   141  TYR141     -0.1241
     39  CA         6.2020   -3.5540    0.8490 C.3   141  TYR141      0.1605
     40  C          7.2680   -3.6930   -0.1920 C.2   141  TYR141      0.2264
     41  O          8.2270   -4.4490   -0.0160 O.2   141  TYR141     -0.2867
     42  CB         6.7260   -2.7200    1.9990 C.3   141  TYR141      0.0534
     43  CG         6.9720   -1.2810    1.6250 C.ar  141  TYR141     -0.0201
     44  CD1        5.9230   -0.4420    1.2650 C.ar  141  TYR141     -0.0009
     45  CD2        8.2600   -0.7470    1.6770 C.ar  141  TYR141     -0.0009
     46  CE1        6.1570    0.9200    0.9700 C.ar  141  TYR141      0.0417
     47  CE2        8.5100    0.5850    1.3900 C.ar  141  TYR141      0.0417
     48  CZ         7.4640    1.4260    1.0360 C.ar  141  TYR141      0.1957
     49  OH         7.7310    2.7550    0.7650 O.3   141  TYR141     -0.2866
     50  N         10.1490   -1.9010   -2.2750 N.3   143  ARG143     -0.1245
     51  CA        11.0870   -0.8100   -2.2560 C.3   143  ARG143      0.1563
     52  C         12.0860   -0.7200   -3.3930 C.2   143  ARG143      0.2260
     53  O         13.1920   -1.2430   -3.2960 O.2   143  ARG143     -0.2867
     54  CB        11.8630   -0.8320   -0.9520 C.3   143  ARG143      0.0307
     55  CG        12.8850    0.2670   -0.8660 C.3   143  ARG143      0.0489
     56  CD        12.1870    1.6080   -0.8990 C.3   143  ARG143      0.2205
     57  NE        12.7260    2.4090    0.1840 N.pl3 143  ARG143     -0.0865
     58  CZ        12.0080    2.9980    1.1220 C.cat 143  ARG143      0.5346
     59  NH1       10.6890    2.9010    1.1360 N.pl3 143  ARG143      0.1354
     60  NH2       12.6330    3.6860    2.0450 N.pl3 143  ARG143      0.1354
     61  N         10.3220   11.8430   -5.2360 N.3   202  LYS202     -0.1245
     62  CA        10.6100   11.0680   -4.0590 C.3   202  LYS202      0.1561
     63  C         12.1040   10.7680   -4.0590 C.2   202  LYS202      0.2260
     64  O         12.5400    9.7360   -4.5570 O.2   202  LYS202     -0.2867
     65  CB         9.7760    9.7970   -4.0820 C.3   202  LYS202      0.0271
     66  CG        10.1210    8.8040   -3.0120 C.3   202  LYS202      0.0035
     67  CD         9.2540    7.5850   -3.1640 C.3   202  LYS202      0.0206
     68  CE         7.9670    7.7900   -2.4590 C.3   202  LYS202      0.1093
     69  NZ         8.2050    7.7840   -1.0250 N.3   202  LYS202     -0.1314
     70  N         13.8970   13.5240    2.7000 N.3   207  TYR207     -0.1241
     71  CA        13.6510   12.9410    4.0300 C.3   207  TYR207      0.1605
     72  C         14.6810   13.1100    5.1590 C.2   207  TYR207      0.2264
     73  O         14.3010   13.3390    6.3190 O.2   207  TYR207     -0.2867
     74  CB        13.3270   11.4420    3.8710 C.3   207  TYR207      0.0534
     75  CG        12.2090   11.2130    2.8940 C.ar  207  TYR207     -0.0201
     76  CD1       12.4170   11.3820    1.5170 C.ar  207  TYR207     -0.0009
     77  CD2       10.9080   10.9800    3.3370 C.ar  207  TYR207     -0.0009
     78  CE1       11.3550   11.3460    0.6180 C.ar  207  TYR207      0.0417
     79  CE2        9.8420   10.9400    2.4420 C.ar  207  TYR207      0.0417
     80  CZ        10.0710   11.1260    1.0900 C.ar  207  TYR207      0.1957
     81  OH         9.0160   11.0790    0.2080 O.3   207  TYR207     -0.2866
     82  N          5.2490   11.7640    5.5540 N.3   240  THR240     -0.1218
     83  CA         5.1680   10.9490    4.3550 C.3   240  THR240      0.1862
     84  C          3.7250   10.6550    3.9440 C.2   240  THR240      0.2287
     85  O          3.3680    9.4990    3.6770 O.2   240  THR240     -0.2866
     86  CB         5.9100    9.6030    4.5500 C.3   240  THR240      0.1770
     87  OG1        5.2990    8.8690    5.6130 O.3   240  THR240     -0.2211
     88  CG2        7.3810    9.8420    4.8910 C.3   240  THR240      0.0375
     89  N          4.4500   15.9260   -2.8970 N.3   266  LEU266     -0.1245
     90  CA         4.6530   14.6870   -3.6090 C.3   266  LEU266      0.1561
     91  C          3.3360   14.0990   -4.1360 C.2   266  LEU266      0.2260
     92  O          2.3750   13.9770   -3.3880 O.2   266  LEU266     -0.2867
     93  CB         5.3560   13.7080   -2.6530 C.3   266  LEU266      0.0270
     94  CG         6.2160   12.5400   -3.1590 C.3   266  LEU266      0.0019
     95  CD1        5.4210   11.8030   -4.1890 C.3   266  LEU266      0.0001
     96  CD2        7.5380   13.0090   -3.7620 C.3   266  LEU266      0.0001
     97  N         -1.4930    7.7330    1.9920 N.3   312  GLY312     -0.1210
     98  CA        -0.1480    7.2090    1.8490 C.3   312  GLY312      0.1956
     99  C         -0.2010    5.6930    1.7940 C.2   312  GLY312      0.2613
    100  O         -1.1500    5.0740    2.2600 O.2   312  GLY312     -0.2717
    101  N          0.8280    5.0850    1.2410 N.am  313  THR313     -0.1938
    102  CA         0.8390    3.6420    1.1090 C.3   313  THR313      0.2028
    103  C          0.9690    2.8770    2.4340 C.2   313  THR313      0.2642
    104  O          0.6440    1.6900    2.4980 O.2   313  THR313     -0.2714
    105  CB         1.9520    3.1980    0.1370 C.3   313  THR313      0.1808
    106  OG1        1.9000    4.0170   -1.0320 O.3   313  THR313     -0.2208
    107  CG2        1.7640    1.7470   -0.2890 C.3   313  THR313      0.0379
    108  N          1.4040    3.5500    3.4910 N.am  314  ALA314     -0.1977
    109  CA         1.5520    2.8690    4.7820 C.3   314  ALA314      0.1597
    110  C          0.2100    2.4400    5.3710 C.2   314  ALA314      0.2287
    111  O          0.0720    1.3240    5.8730 O.2   314  ALA314     -0.2864
    112  CB         2.2740    3.7470    5.7570 C.3   314  ALA314      0.0319
@<TRIPOS>BOND
     1    27    28    1
     2    28    29    1
     3    28    31    1
     4    29    30    2
     5    31    32    1
     6    32    33    1
     7    33    34    1
     8    34    35    2
     9    61    62    1
    10    35    36    1
    11    35    37    1
    12    15    14    2
    13    12    13    1
    14    64    63    2
    15    14    13    1
    16    13    16    1
    17    95    94    1
    18    91    90    1
    19    91    92    2
    20    65    62    1
    21    65    66    1
    22    62    63    1
    23    96    94    1
    24    90    89    1
    25    90    93    1
    26    52    53    2
    27    52    51    1
    28    23    24    1
    29    67    66    1
    30    67    68    1
    31    94    93    1
    32    26    25    2
    33    16    17    1
    34    25    24    1
    35    68    69    1
    36    50    51    1
    37    51    54    1
    38    17    18   ar
    39    17    19   ar
    40    18    20   ar
    41    19    21   ar
    42   106   105    1
    43    54    55    1
    44    56    55    1
    45    56    57    1
    46    20    22   ar
    47   107   105    1
    48    40    41    2
    49    40    39    1
    50    21    22   ar
    51   105   102    1
    52    57    58    2
    53    81    80    1
    54    78    80   ar
    55    78    76   ar
    56    49    48    1
    57    39    38    1
    58    39    42    1
    59    46    48   ar
    60    46    44   ar
    61    48    47   ar
    62    80    79   ar
    63   102   101    1
    64   102   103    1
    65    58    59    1
    66    58    60    1
    67   101    99   am
    68    44    43   ar
    69    47    45   ar
    70    76    75   ar
    71    43    45   ar
    72    43    42    1
    73    99    98    1
    74    99   100    2
    75    98    97    1
    76   103   104    2
    77   103   108   am
    78    79    77   ar
    79    70    71    1
    80    75    77   ar
    81    75    74    1
    82   108   109    1
    83    85    84    2
    84    74    71    1
    85    84    83    1
    86    71    72    1
    87    83    86    1
    88    83    82    1
    89    86    88    1
    90    86    87    1
    91   109   110    1
    92   109   112    1
    93    11     9   ar
    94    11    10   ar
    95    72    73    2
    96     9     7   ar
    97   110   111    2
    98    10     8   ar
    99     7     6   ar
   100     8     6   ar
   101     4     3    2
   102     6     5    1
   103     3     2    1
   104     2     5    1
   105     2     1    1
