@<TRIPOS>MOLECULE
tmp/1el4A00.pdb
 273 268 0 0 0
SMALL
GASTEIGER

@<TRIPOS>ATOM
      1  N         27.9700   20.4840   33.1070 N.3    21  HIS21      -0.1241
      2  CA        26.6830   19.8240   32.9740 C.3    21  HIS21       0.1621
      3  C         25.5210   20.8090   32.8420 C.2    21  HIS21       0.2264
      4  O         24.5230   20.5000   32.1980 O.2    21  HIS21      -0.2867
      5  CB        26.4730   18.8510   34.1390 C.3    21  HIS21       0.0745
      6  CG        27.3170   17.6200   34.0300 C.ar   21  HIS21       0.0817
      7  ND1       27.1220   16.6780   33.0430 N.ar   21  HIS21      -0.2268
      8  CD2       28.4290   17.2380   34.7000 C.ar   21  HIS21       0.1154
      9  CE1       28.0840   15.7750   33.1030 C.ar   21  HIS21       0.1986
     10  NE2       28.8900   16.0930   34.1000 N.ar   21  HIS21      -0.2212
     11  N         25.2450   21.5810   29.2570 N.3    24  MET24      -0.1245
     12  CA        24.5910   20.5170   28.5120 C.3    24  MET24       0.1570
     13  C         23.0980   20.4560   28.8260 C.2    24  MET24       0.2261
     14  O         22.2820   20.2090   27.9410 O.2    24  MET24      -0.2867
     15  CB        25.2560   19.1750   28.8120 C.3    24  MET24       0.0387
     16  CG        26.7050   19.0780   28.3420 C.3    24  MET24       0.0595
     17  SD        26.8690   19.4070   26.5690 S.3    24  MET24      -0.1393
     18  CE        25.9510   18.0560   25.8920 C.3    24  MET24       0.0692
     19  N         21.4150   22.9920   26.9110 N.3    27  PHE27      -0.1227
     20  CA        21.4720   22.5770   25.5140 C.3    27  PHE27       0.1736
     21  C         20.3190   21.6120   25.2030 C.2    27  PHE27       0.2595
     22  O         19.7080   21.6850   24.1340 O.2    27  PHE27      -0.2718
     23  CB        22.8510   21.9430   25.2530 C.3    27  PHE27       0.0547
     24  CG        22.8880   20.9520   24.1200 C.ar   27  PHE27      -0.0202
     25  CD1       22.7110   21.3590   22.8030 C.ar   27  PHE27      -0.0042
     26  CD2       23.1400   19.6080   24.3790 C.ar   27  PHE27      -0.0042
     27  CE1       22.7880   20.4380   21.7560 C.ar   27  PHE27      -0.0003
     28  CE2       23.2200   18.6800   23.3390 C.ar   27  PHE27      -0.0003
     29  CZ        23.0430   19.0990   22.0270 C.ar   27  PHE27      -0.0000
     30  N         20.0120   20.7260   26.1470 N.am   28  LEU28      -0.1980
     31  CA        18.9220   19.7680   25.9830 C.3    28  LEU28       0.1596
     32  C         17.5630   20.4120   26.2610 C.2    28  LEU28       0.2287
     33  O         16.5400   19.9630   25.7430 O.2    28  LEU28      -0.2864
     34  CB        19.1120   18.5750   26.9260 C.3    28  LEU28       0.0297
     35  CG        20.3430   17.6950   26.6820 C.3    28  LEU28       0.0022
     36  CD1       20.4570   16.6420   27.7760 C.3    28  LEU28       0.0001
     37  CD2       20.2180   17.0330   25.3140 C.3    28  LEU28       0.0001
     38  N         15.0600   13.2500   25.3210 N.3    41  ILE41      -0.1245
     39  CA        16.4280   12.8210   25.0490 C.3    41  ILE41       0.1561
     40  C         16.4420   11.6710   24.0390 C.2    41  ILE41       0.2260
     41  O         17.2480   11.6610   23.1040 O.2    41  ILE41      -0.2867
     42  CB        17.1360   12.3830   26.3510 C.3    41  ILE41       0.0252
     43  CG1       17.4780   13.6230   27.1850 C.3    41  ILE41       0.0019
     44  CG2       18.3980   11.5890   26.0320 C.3    41  ILE41       0.0019
     45  CD1       18.1650   13.3140   28.5020 C.3    41  ILE41       0.0001
     46  N         15.5320   12.8590   20.6130 N.3    44  LYS44      -0.1231
     47  CA        16.6790   13.5390   20.0230 C.3    44  LYS44       0.1693
     48  C         17.6390   12.5040   19.4420 C.2    44  LYS44       0.2591
     49  O         18.1650   12.6700   18.3420 O.2    44  LYS44      -0.2718
     50  CB        17.4070   14.3660   21.0860 C.3    44  LYS44       0.0285
     51  CG        18.6630   15.0750   20.5940 C.3    44  LYS44       0.0035
     52  CD        19.3700   15.7850   21.7470 C.3    44  LYS44       0.0206
     53  CE        20.6360   16.4950   21.2800 C.3    44  LYS44       0.1093
     54  NZ        20.3470   17.5950   20.3180 N.3    44  LYS44      -0.1314
     55  N         17.8650   11.4330   20.1910 N.am   45  ALA45      -0.1980
     56  CA        18.7750   10.3820   19.7550 C.3    45  ALA45       0.1597
     57  C         18.2620    9.5780   18.5630 C.2    45  ALA45       0.2287
     58  O         18.9880    9.3560   17.5950 O.2    45  ALA45      -0.2864
     59  CB        19.0700    9.4400   20.9200 C.3    45  ALA45       0.0319
     60  N         18.9490   12.6200   15.5570 N.3    49  ILE49      -0.1245
     61  CA        20.3070   12.2160   15.2220 C.3    49  ILE49       0.1561
     62  C         20.4320   10.9900   14.3260 C.2    49  ILE49       0.2260
     63  O         21.0030   11.0770   13.2410 O.2    49  ILE49      -0.2867
     64  CB        21.1340   11.9880   16.5050 C.3    49  ILE49       0.0252
     65  CG1       21.2560   13.3110   17.2650 C.3    49  ILE49       0.0019
     66  CG2       22.5280   11.4590   16.1570 C.3    49  ILE49       0.0019
     67  CD1       21.9560   13.1830   18.6040 C.3    49  ILE49       0.0001
     68  N         21.4490    1.9710   19.5200 N.3    63  HIS63      -0.1241
     69  CA        21.8420    3.2780   20.0320 C.3    63  HIS63       0.1621
     70  C         20.8310    3.7500   21.0780 C.2    63  HIS63       0.2264
     71  O         21.2080    4.2590   22.1390 O.2    63  HIS63      -0.2867
     72  CB        21.9350    4.2750   18.8700 C.3    63  HIS63       0.0745
     73  CG        22.3690    5.6520   19.2740 C.ar   63  HIS63       0.0817
     74  ND1       21.4780    6.6790   19.4950 N.ar   63  HIS63      -0.2268
     75  CD2       23.6030    6.1730   19.4820 C.ar   63  HIS63       0.1154
     76  CE1       22.1420    7.7750   19.8180 C.ar   63  HIS63       0.1986
     77  NE2       23.4330    7.4950   19.8180 N.ar   63  HIS63      -0.2212
     78  N         21.4020    4.8470   25.0230 N.3    67  VAL67      -0.1245
     79  CA        21.0320    6.1740   25.5130 C.3    67  VAL67       0.1561
     80  C         20.0750    6.0160   26.6950 C.2    67  VAL67       0.2260
     81  O         20.2100    6.6950   27.7130 O.2    67  VAL67      -0.2867
     82  CB        20.3620    7.0000   24.3970 C.3    67  VAL67       0.0252
     83  CG1       19.7950    8.3000   24.9590 C.3    67  VAL67       0.0019
     84  CG2       21.3880    7.3080   23.3050 C.3    67  VAL67       0.0019
     85  N         22.0840    4.8990   29.6940 N.3    70  PHE70      -0.1227
     86  CA        22.9450    5.9780   30.1590 C.3    70  PHE70       0.1736
     87  C         22.1890    7.0070   30.9980 C.2    70  PHE70       0.2595
     88  O         22.5750    7.3010   32.1310 O.2    70  PHE70      -0.2718
     89  CB        23.5990    6.6790   28.9620 C.3    70  PHE70       0.0547
     90  CG        24.7050    7.6220   29.3430 C.ar   70  PHE70      -0.0202
     91  CD1       26.0060    7.1560   29.5180 C.ar   70  PHE70      -0.0042
     92  CD2       24.4410    8.9740   29.5530 C.ar   70  PHE70      -0.0042
     93  CE1       27.0310    8.0220   29.8980 C.ar   70  PHE70      -0.0003
     94  CE2       25.4610    9.8480   29.9340 C.ar   70  PHE70      -0.0003
     95  CZ        26.7570    9.3710   30.1060 C.ar   70  PHE70      -0.0000
     96  N         21.1040    7.5490   30.4550 N.am   71  PHE71      -0.1976
     97  CA        20.3650    8.5540   31.1980 C.3    71  PHE71       0.1639
     98  C         19.4970    8.0140   32.3220 C.2    71  PHE71       0.2290
     99  O         19.1150    8.7580   33.2220 O.2    71  PHE71      -0.2864
    100  CB        19.5950    9.4510   30.2310 C.3    71  PHE71       0.0560
    101  CG        20.4990   10.3510   29.4360 C.ar   71  PHE71      -0.0200
    102  CD1       20.8720   10.0210   28.1380 C.ar   71  PHE71      -0.0042
    103  CD2       21.0560   11.4820   30.0270 C.ar   71  PHE71      -0.0042
    104  CE1       21.7900   10.8010   27.4400 C.ar   71  PHE71      -0.0003
    105  CE2       21.9760   12.2700   29.3390 C.ar   71  PHE71      -0.0003
    106  CZ        22.3460   11.9280   28.0430 C.ar   71  PHE71      -0.0000
    107  N         19.0220   16.4860   38.0420 N.3    87  PHE87      -0.1241
    108  CA        19.8500   16.0350   36.9270 C.3    87  PHE87       0.1605
    109  C         21.3030   15.9370   37.3980 C.2    87  PHE87       0.2264
    110  O         21.9760   14.9270   37.1680 O.2    87  PHE87      -0.2867
    111  CB        19.7330   17.0370   35.7750 C.3    87  PHE87       0.0534
    112  CG        20.4440   16.6250   34.5170 C.ar   87  PHE87      -0.0203
    113  CD1       19.9390   15.6050   33.7140 C.ar   87  PHE87      -0.0042
    114  CD2       21.5810   17.3090   34.0950 C.ar   87  PHE87      -0.0042
    115  CE1       20.5520   15.2790   32.5020 C.ar   87  PHE87      -0.0003
    116  CE2       22.2020   16.9920   32.8880 C.ar   87  PHE87      -0.0003
    117  CZ        21.6850   15.9760   32.0890 C.ar   87  PHE87      -0.0000
    118  N         23.9110   12.7740   37.9010 N.3    91  TRP91      -0.1241
    119  CA        25.2320   12.6480   37.2960 C.3    91  TRP91       0.1605
    120  C         26.2740   12.2500   38.3240 C.2    91  TRP91       0.2264
    121  O         27.2520   11.5730   38.0000 O.2    91  TRP91      -0.2867
    122  CB        25.6480   13.9500   36.6100 C.3    91  TRP91       0.0550
    123  CG        25.2840   13.9690   35.1630 C.ar   91  TRP91       0.0003
    124  CD1       24.1400   14.4630   34.6020 C.ar   91  TRP91       0.0946
    125  CD2       26.0550   13.4200   34.0890 C.ar   91  TRP91       0.0152
    126  NE1       24.1530   14.2530   33.2420 N.ar   91  TRP91      -0.2442
    127  CE2       25.3170   13.6130   32.9030 C.ar   91  TRP91       0.0810
    128  CE3       27.3000   12.7780   34.0170 C.ar   91  TRP91       0.0012
    129  CZ2       25.7840   13.1890   31.6530 C.ar   91  TRP91       0.0191
    130  CZ3       27.7660   12.3610   32.7750 C.ar   91  TRP91       0.0001
    131  CH2       27.0090   12.5680   31.6110 C.ar   91  TRP91       0.0015
    132  N         29.2450    4.6370   29.2080 N.3   110  ILE110     -0.1245
    133  CA        29.7190    5.6140   28.2310 C.3   110  ILE110      0.1561
    134  C         30.4700    4.8790   27.1160 C.2   110  ILE110      0.2260
    135  O         30.3930    5.2680   25.9520 O.2   110  ILE110     -0.2867
    136  CB        30.6190    6.7090   28.8940 C.3   110  ILE110      0.0252
    137  CG1       31.0530    7.7360   27.8440 C.3   110  ILE110      0.0019
    138  CG2       31.8290    6.0790   29.5690 C.3   110  ILE110      0.0019
    139  CD1       29.9070    8.5430   27.2480 C.3   110  ILE110      0.0001
    140  N         27.7670    3.3150   24.9120 N.3   113  TRP113     -0.1227
    141  CA        27.0760    4.3120   24.1030 C.3   113  TRP113      0.1737
    142  C         28.0410    4.6180   22.9570 C.2   113  TRP113      0.2596
    143  O         27.6410    4.7210   21.7980 O.2   113  TRP113     -0.2718
    144  CB        26.7920    5.5710   24.9360 C.3   113  TRP113      0.0564
    145  CG        26.0440    6.6640   24.2090 C.ar  113  TRP113      0.0003
    146  CD1       25.5360    6.6150   22.9420 C.ar  113  TRP113      0.0946
    147  CD2       25.7440    7.9770   24.7100 C.ar  113  TRP113      0.0152
    148  NE1       24.9430    7.8160   22.6200 N.ar  113  TRP113     -0.2442
    149  CE2       25.0560    8.6680   23.6870 C.ar  113  TRP113      0.0810
    150  CE3       25.9910    8.6340   25.9240 C.ar  113  TRP113      0.0012
    151  CZ2       24.6120    9.9880   23.8390 C.ar  113  TRP113      0.0191
    152  CZ3       25.5490    9.9490   26.0770 C.ar  113  TRP113      0.0001
    153  CH2       24.8670   10.6110   25.0370 C.ar  113  TRP113      0.0015
    154  N         29.3220    4.7420   23.2940 N.am  114  GLY114     -0.1957
    155  CA        30.3310    5.0010   22.2840 C.3   114  GLY114      0.1869
    156  C         30.3470    3.9250   21.2150 C.2   114  GLY114      0.2309
    157  O         30.4280    4.2320   20.0300 O.2   114  GLY114     -0.2863
    158  N         27.6040    4.6010   18.7620 N.3   117  VAL117     -0.1231
    159  CA        27.8330    5.7510   17.9000 C.3   117  VAL117      0.1692
    160  C         28.8740    5.3840   16.8520 C.2   117  VAL117      0.2592
    161  O         28.6630    5.6160   15.6640 O.2   117  VAL117     -0.2718
    162  CB        28.3240    6.9680   18.7050 C.3   117  VAL117      0.0266
    163  CG1       28.7470    8.0900   17.7590 C.3   117  VAL117      0.0020
    164  CG2       27.2080    7.4520   19.6210 C.3   117  VAL117      0.0020
    165  N         29.9940    4.8140   17.2890 N.am  118  PHE118     -0.1976
    166  CA        31.0410    4.4180   16.3520 C.3   118  PHE118      0.1639
    167  C         30.5060    3.4110   15.3310 C.2   118  PHE118      0.2290
    168  O         30.8850    3.4530   14.1620 O.2   118  PHE118     -0.2864
    169  CB        32.2430    3.8190   17.0910 C.3   118  PHE118      0.0560
    170  CG        33.2100    4.8480   17.6170 C.ar  118  PHE118     -0.0200
    171  CD1       32.8590    5.6860   18.6700 C.ar  118  PHE118     -0.0042
    172  CD2       34.4750    4.9820   17.0520 C.ar  118  PHE118     -0.0042
    173  CE1       33.7530    6.6440   19.1530 C.ar  118  PHE118     -0.0003
    174  CE2       35.3770    5.9370   17.5280 C.ar  118  PHE118     -0.0003
    175  CZ        35.0160    6.7680   18.5800 C.ar  118  PHE118     -0.0000
    176  N         33.0810   12.8870   12.5030 N.3   134  TRP134     -0.1241
    177  CA        32.8310   13.5500   13.7790 C.3   134  TRP134      0.1605
    178  C         32.1900   14.9190   13.5410 C.2   134  TRP134      0.2264
    179  O         31.2890   15.3250   14.2740 O.2   134  TRP134     -0.2867
    180  CB        34.1290   13.7090   14.5740 C.3   134  TRP134      0.0550
    181  CG        33.9070   14.2980   15.9400 C.ar  134  TRP134      0.0003
    182  CD1       34.3650   15.4980   16.4060 C.ar  134  TRP134      0.0946
    183  CD2       33.1350   13.7240   17.0030 C.ar  134  TRP134      0.0152
    184  NE1       33.9230   15.7090   17.6950 N.ar  134  TRP134     -0.2442
    185  CE2       33.1660   14.6350   18.0840 C.ar  134  TRP134      0.0810
    186  CE3       32.4170   12.5280   17.1460 C.ar  134  TRP134      0.0012
    187  CZ2       32.5060   14.3860   19.2950 C.ar  134  TRP134      0.0191
    188  CZ3       31.7580   12.2810   18.3540 C.ar  134  TRP134      0.0001
    189  CH2       31.8110   13.2080   19.4100 C.ar  134  TRP134      0.0015
    190  N         28.6060   14.4520   13.0960 N.3   137  TYR137     -0.1241
    191  CA        27.9290   14.1840   14.3600 C.3   137  TYR137      0.1605
    192  C         27.7930   15.4620   15.1820 C.2   137  TYR137      0.2264
    193  O         26.7250   15.7580   15.7160 O.2   137  TYR137     -0.2867
    194  CB        28.6930   13.1490   15.1860 C.3   137  TYR137      0.0534
    195  CG        28.0080   12.8510   16.4990 C.ar  137  TYR137     -0.0201
    196  CD1       26.9000   12.0070   16.5510 C.ar  137  TYR137     -0.0009
    197  CD2       28.4150   13.4790   17.6750 C.ar  137  TYR137     -0.0009
    198  CE1       26.2090   11.7980   17.7420 C.ar  137  TYR137      0.0417
    199  CE2       27.7290   13.2810   18.8690 C.ar  137  TYR137      0.0417
    200  CZ        26.6280   12.4410   18.8940 C.ar  137  TYR137      0.1957
    201  OH        25.9320   12.2680   20.0690 O.3   137  TYR137     -0.2866
    202  N         24.0950   16.4650   16.1270 N.3   141  SER141     -0.1217
    203  CA        23.7200   16.3620   17.5340 C.3   141  SER141      0.1889
    204  C         23.6720   17.7640   18.1280 C.2   141  SER141      0.2288
    205  O         22.9880   18.0070   19.1210 O.2   141  SER141     -0.2866
    206  CB        24.7370   15.5200   18.3070 C.3   141  SER141      0.2089
    207  OG        25.9760   16.1990   18.4010 O.3   141  SER141     -0.2183
    208  N         26.0930   19.2280   19.5930 N.3   143  ILE143     -0.1245
    209  CA        27.0220   19.3730   20.7100 C.3   143  ILE143      0.1561
    210  C         28.2840   20.1360   20.3070 C.2   143  ILE143      0.2260
    211  O         28.9030   20.8030   21.1340 O.2   143  ILE143     -0.2867
    212  CB        27.4240   17.9950   21.2970 C.3   143  ILE143      0.0252
    213  CG1       28.1400   18.1900   22.6380 C.3   143  ILE143      0.0019
    214  CG2       28.3350   17.2490   20.3260 C.3   143  ILE143      0.0019
    215  CD1       28.3730   16.9040   23.4090 C.3   143  ILE143      0.0001
    216  N         37.2810    4.2460   19.5840 N.3   167  VAL167     -0.1245
    217  CA        36.4500    4.3050   20.7840 C.3   167  VAL167      0.1561
    218  C         37.2070    4.1720   22.1090 C.2   167  VAL167      0.2260
    219  O         36.8140    4.7560   23.1190 O.2   167  VAL167     -0.2867
    220  CB        35.3370    3.2290   20.7120 C.3   167  VAL167      0.0252
    221  CG1       35.9400    1.8370   20.8580 C.3   167  VAL167      0.0019
    222  CG2       34.2890    3.4910   21.7800 C.3   167  VAL167      0.0019
    223  N         38.4300    7.7050   22.8160 N.3   170  MET170     -0.1230
    224  CA        37.3270    8.6120   23.1100 C.3   170  MET170      0.1702
    225  C         36.6680    8.3050   24.4520 C.2   170  MET170      0.2593
    226  O         36.2600    9.2180   25.1720 O.2   170  MET170     -0.2718
    227  CB        36.2870    8.5770   21.9890 C.3   170  MET170      0.0401
    228  CG        35.2950    9.7230   22.0750 C.3   170  MET170      0.0596
    229  SD        36.1520   11.3230   22.0830 S.3   170  MET170     -0.1393
    230  CE        34.8460   12.4050   21.4960 C.3   170  MET170      0.0692
    231  N         36.5780    7.0250   24.8000 N.am  171  THR171     -0.1953
    232  CA        35.9720    6.6430   26.0700 C.3   171  THR171      0.1897
    233  C         36.7910    7.2030   27.2320 C.2   171  THR171      0.2313
    234  O         36.2360    7.7530   28.1830 O.2   171  THR171     -0.2863
    235  CB        35.8670    5.1080   26.1990 C.3   171  THR171      0.1794
    236  OG1       35.0010    4.6030   25.1740 O.3   171  THR171     -0.2208
    237  CG2       35.3010    4.7240   27.5640 C.3   171  THR171      0.0378
    238  N         36.1490   10.9690   27.3710 N.3   174  HIS174     -0.1241
    239  CA        34.8030   11.2580   27.8580 C.3   174  HIS174      0.1621
    240  C         34.6600   11.0160   29.3470 C.2   174  HIS174      0.2264
    241  O         33.9520   11.7460   30.0350 O.2   174  HIS174     -0.2867
    242  CB        33.7750   10.4180   27.1000 C.3   174  HIS174      0.0745
    243  CG        33.2650   11.0780   25.8610 C.ar  174  HIS174      0.0817
    244  ND1       32.6740   10.3790   24.8310 N.ar  174  HIS174     -0.2268
    245  CD2       33.2350   12.3810   25.4980 C.ar  174  HIS174      0.1154
    246  CE1       32.3020   11.2260   23.8870 C.ar  174  HIS174      0.1986
    247  NE2       32.6310   12.4460   24.2680 N.ar  174  HIS174     -0.2212
    248  N         33.3810   14.1350   31.3650 N.3   178  TRP178     -0.1241
    249  CA        32.0640   14.1380   32.0010 C.3   178  TRP178      0.1605
    250  C         32.0040   13.7100   33.4620 C.2   178  TRP178      0.2264
    251  O         31.1280   14.1600   34.2000 O.2   178  TRP178     -0.2867
    252  CB        31.0950   13.2340   31.2230 C.3   178  TRP178      0.0550
    253  CG        30.9170   13.5750   29.7720 C.ar  178  TRP178      0.0003
    254  CD1       31.0530   12.7210   28.7120 C.ar  178  TRP178      0.0946
    255  CD2       30.5400   14.8420   29.2200 C.ar  178  TRP178      0.0152
    256  NE1       30.7820   13.3770   27.5350 N.ar  178  TRP178     -0.2442
    257  CE2       30.4660   14.6800   27.8160 C.ar  178  TRP178      0.0810
    258  CE3       30.2530   16.0980   29.7720 C.ar  178  TRP178      0.0012
    259  CZ2       30.1190   15.7280   26.9570 C.ar  178  TRP178      0.0191
    260  CZ3       29.9060   17.1450   28.9120 C.ar  178  TRP178      0.0001
    261  CH2       29.8440   16.9490   27.5220 C.ar  178  TRP178      0.0015
    262  N         36.1480   19.2810   23.7320 N.3   189  TYR189     -0.1241
    263  CA        35.2080   19.7800   22.7360 C.3   189  TYR189      0.1605
    264  C         35.5580   21.1920   22.2660 C.2   189  TYR189      0.2264
    265  O         34.6870   21.9370   21.8240 O.2   189  TYR189     -0.2867
    266  CB        33.7760   19.7590   23.2900 C.3   189  TYR189      0.0534
    267  CG        33.1470   18.3800   23.3420 C.ar  189  TYR189     -0.0201
    268  CD1       33.3300   17.5400   24.4420 C.ar  189  TYR189     -0.0009
    269  CD2       32.3760   17.9120   22.2800 C.ar  189  TYR189     -0.0009
    270  CE1       32.7550   16.2650   24.4790 C.ar  189  TYR189      0.0417
    271  CE2       31.8010   16.6450   22.3070 C.ar  189  TYR189      0.0417
    272  CZ        31.9930   15.8280   23.4050 C.ar  189  TYR189      0.1957
    273  OH        31.4160   14.5790   23.4180 O.3   189  TYR189     -0.2866
@<TRIPOS>BOND
     1   176   177    1
     2   190   191    1
     3    63    62    2
     4   178   177    1
     5   178   179    2
     6   177   180    1
     7   168   167    2
     8    62    61    1
     9   191   192    1
    10   191   194    1
    11   180   181    1
    12   192   193    2
    13   194   195    1
    14    61    60    1
    15    61    64    1
    16   167   166    1
    17   161   160    2
    18   181   182   ar
    19   181   183   ar
    20   202   203    1
    21    66    64    1
    22   166   169    1
    23   166   165    1
    24   182   184   ar
    25   195   196   ar
    26   195   197   ar
    27    64    65    1
    28   196   198   ar
    29   160   165   am
    30   160   159    1
    31   183   186   ar
    32   183   185   ar
    33   172   174   ar
    34   172   170   ar
    35   169   170    1
    36   186   188   ar
    37    65    67    1
    38   174   175   ar
    39   203   204    1
    40   203   206    1
    41    58    57    2
    42   170   171   ar
    43   197   199   ar
    44   184   185   ar
    45   198   200   ar
    46   163   162    1
    47   159   162    1
    48   159   158    1
    49   185   187   ar
    50   204   205    2
    51   206   207    1
    52    49    48    2
    53   188   189   ar
    54    57    56    1
    55   175   173   ar
    56   171   173   ar
    57   162   164    1
    58   199   200   ar
    59    72    73    1
    60    72    69    1
    61   200   201    1
    62    73    75   ar
    63    73    74   ar
    64   187   189   ar
    65    48    47    1
    66    48    55   am
    67    75    77   ar
    68    74    76   ar
    69    68    69    1
    70   216   217    1
    71   208   209    1
    72    56    55    1
    73    56    59    1
    74    76    77   ar
    75    47    46    1
    76    47    50    1
    77   157   156    2
    78    69    70    1
    79   210   209    1
    80   210   211    2
    81    54    53    1
    82   214   212    1
    83    51    50    1
    84    51    52    1
    85   209   212    1
    86   220   217    1
    87   220   221    1
    88   220   222    1
    89   217   218    1
    90    70    71    2
    91   156   155    1
    92    53    52    1
    93   212   213    1
    94   230   229    1
    95    27    29   ar
    96    27    25   ar
    97   143   142    2
    98   265   264    2
    99   227   228    1
   100   227   224    1
   101    29    28   ar
   102   228   229    1
   103   218   219    2
   104   264   263    1
   105   269   271   ar
   106   269   267   ar
   107   155   154    1
   108   271   272   ar
   109   148   146   ar
   110   148   149   ar
   111   213   215    1
   112   263   266    1
   113   263   262    1
   114    25    24   ar
   115   223   224    1
   116   146   145   ar
   117   142   154   am
   118   142   141    1
   119    41    40    2
   120   224   225    1
   121   266   267    1
   122    84    82    1
   123    28    26   ar
   124   267   268   ar
   125   272   273    1
   126   272   270   ar
   127   149   151   ar
   128   149   147   ar
   129   151   153   ar
   130   246   247   ar
   131   246   244   ar
   132    40    39    1
   133   141   140    1
   134   141   144    1
   135    24    26   ar
   136    24    23    1
   137    22    21    2
   138   145   147   ar
   139   145   144    1
   140   247   245   ar
   141    82    83    1
   142    82    79    1
   143   268   270   ar
   144   225   231   am
   145   225   226    2
   146   147   150   ar
   147   231   232    1
   148   244   243   ar
   149    78    79    1
   150   153   152   ar
   151    39    38    1
   152    39    42    1
   153   236   235    1
   154    21    20    1
   155    21    30   am
   156    23    20    1
   157    37    35    1
   158   245   243   ar
   159    79    80    1
   160    20    19    1
   161    33    32    2
   162   243   242    1
   163    18    17    1
   164   150   152   ar
   165   135   134    2
   166    31    30    1
   167    31    32    1
   168    31    34    1
   169    44    42    1
   170   232   235    1
   171   232   233    1
   172   235   237    1
   173    42    43    1
   174    17    16    1
   175    35    34    1
   176    35    36    1
   177    80    81    2
   178   259   261   ar
   179   259   257   ar
   180   242   239    1
   181   134   133    1
   182    43    45    1
   183   233   234    2
   184   139   137    1
   185   238   239    1
   186   104   106   ar
   187   104   102   ar
   188   261   260   ar
   189   256   257   ar
   190   256   254   ar
   191   257   255   ar
   192   137   136    1
   193   239   240    1
   194    14    13    2
   195   106   105   ar
   196   102   101   ar
   197   133   136    1
   198   133   132    1
   199    16    15    1
   200    12    15    1
   201    12    13    1
   202    12    11    1
   203   254   253   ar
   204   136   138    1
   205   260   258   ar
   206    89    90    1
   207    89    86    1
   208   255   253   ar
   209   255   258   ar
   210   105   103   ar
   211    90    91   ar
   212    90    92   ar
   213   240   241    2
   214   101   103   ar
   215   101   100    1
   216    91    93   ar
   217    92    94   ar
   218    85    86    1
   219   253   252    1
   220    93    95   ar
   221    94    95   ar
   222    86    87    1
   223   100    97    1
   224    96    87   am
   225    96    97    1
   226    87    88    2
   227    97    98    1
   228   252   249    1
   229   248   249    1
   230   131   129   ar
   231   131   130   ar
   232   129   127   ar
   233   249   250    1
   234   117   115   ar
   235   117   116   ar
   236     4     3    2
   237    98    99    2
   238   115   113   ar
   239   130   128   ar
   240     3     2    1
   241   116   114   ar
   242   127   126   ar
   243   127   125   ar
   244     2     1    1
   245     2     5    1
   246     7     9   ar
   247     7     6   ar
   248     9    10   ar
   249   126   124   ar
   250   250   251    2
   251   113   112   ar
   252   128   125   ar
   253     6     5    1
   254     6     8   ar
   255   125   123   ar
   256   114   112   ar
   257    10     8   ar
   258   112   111    1
   259   124   123   ar
   260   123   122    1
   261   111   108    1
   262   122   119    1
   263   108   109    1
   264   108   107    1
   265   110   109    2
   266   119   118    1
   267   119   120    1
   268   121   120    2
