@<TRIPOS>MOLECULE
tmp/1elaA00.pdb
 161 159 0 0 0
SMALL
GASTEIGER

@<TRIPOS>ATOM
      1  N         48.0010   17.6330   41.5410 N.3    45  HIS45      -0.1241
      2  CA        47.4900   17.2160   40.2320 C.3    45  HIS45       0.1621
      3  C         48.2150   17.8350   39.0200 C.2    45  HIS45       0.2264
      4  O         48.0700   17.3160   37.9090 O.2    45  HIS45      -0.2867
      5  CB        45.9680   17.5010   40.1170 C.3    45  HIS45       0.0745
      6  CG        45.4530   18.9060   39.8460 C.ar   45  HIS45       0.0817
      7  ND1       44.8610   19.7130   40.7160 N.ar   45  HIS45      -0.2268
      8  CD2       45.4980   19.5790   38.6480 C.ar   45  HIS45       0.1154
      9  CE1       44.5650   20.8180   40.1120 C.ar   45  HIS45       0.1986
     10  NE2       44.9460   20.7360   38.8680 N.ar   45  HIS45      -0.2212
     11  N         47.9540   11.8720   48.4590 N.3    83  TRP83      -0.1241
     12  CA        47.3140   12.3540   47.2280 C.3    83  TRP83       0.1605
     13  C         46.8700   11.1660   46.3910 C.2    83  TRP83       0.2264
     14  O         47.6350   10.2270   46.1890 O.2    83  TRP83      -0.2867
     15  CB        48.2990   13.2390   46.3490 C.3    83  TRP83       0.0550
     16  CG        47.8040   13.5630   44.9250 C.ar   83  TRP83       0.0003
     17  CD1       48.5100   13.1530   43.8110 C.ar   83  TRP83       0.0946
     18  CD2       46.6400   14.2240   44.5850 C.ar   83  TRP83       0.0152
     19  NE1       47.7950   13.5510   42.7700 N.ar   83  TRP83      -0.2442
     20  CE2       46.6830   14.1810   43.1740 C.ar   83  TRP83       0.0810
     21  CE3       45.5590   14.8460   45.2200 C.ar   83  TRP83       0.0012
     22  CZ2       45.6560   14.7510   42.4180 C.ar   83  TRP83       0.0191
     23  CZ3       44.5360   15.4150   44.4610 C.ar   83  TRP83       0.0001
     24  CH2       44.5820   15.3670   43.0530 C.ar   83  TRP83       0.0015
     25  N         45.2070   10.7130   42.6200 N.3    85  THR85      -0.1203
     26  CA        44.7480   11.3020   41.3530 C.3    85  THR85       0.1994
     27  C         43.2940   11.0630   40.9500 C.2    85  THR85       0.2618
     28  O         42.6450   11.9070   40.3080 O.2    85  THR85      -0.2717
     29  CB        45.5840   10.7990   40.1870 C.3    85  THR85       0.1784
     30  OG1       46.9470   10.8750   40.5300 O.3    85  THR85      -0.2211
     31  CG2       45.3760   11.6590   38.9870 C.3    85  THR85       0.0376
     32  N         42.8220    9.8470   41.3220 N.am   86  ASP86      -0.1959
     33  CA        41.4580    9.3980   41.0420 C.3    86  ASP86       0.1840
     34  C         40.4220    9.9870   41.9880 C.2    86  ASP86       0.2622
     35  O         39.2200    9.7310   41.8480 O.2    86  ASP86      -0.2715
     36  CB        41.3370    7.8630   41.1220 C.3    86  ASP86       0.1450
     37  CG        42.2350    7.0420   40.2020 C.2    86  ASP86       0.3671
     38  OD1       42.7600    7.5360   39.1990 O.co2  86  ASP86      -0.2456
     39  OD2       42.4150    5.8710   40.5260 O.co2  86  ASP86      -0.2456
     40  N         40.8710   10.7600   42.9870 N.am   87  ASP87      -0.1957
     41  CA        39.9500   11.4280   43.8620 C.3    87  ASP87       0.1840
     42  C         40.5230   12.7780   44.3490 C.2    87  ASP87       0.2622
     43  O         41.0450   12.8810   45.4690 O.2    87  ASP87      -0.2715
     44  CB        39.6470   10.4990   45.0400 C.3    87  ASP87       0.1450
     45  CG        38.4890   10.9330   45.9220 C.2    87  ASP87       0.3671
     46  OD1       37.8070   11.9080   45.6260 O.co2  87  ASP87      -0.2456
     47  OD2       38.2510   10.2590   46.9180 O.co2  87  ASP87      -0.2456
     48  N         40.4150   13.8500   43.5300 N.am   88  VAL88      -0.1963
     49  CA        40.8130   15.1750   43.9880 C.3    88  VAL88       0.1727
     50  C         39.8870   15.6180   45.1400 C.2    88  VAL88       0.2616
     51  O         40.2970   16.4320   45.9750 O.2    88  VAL88      -0.2715
     52  CB        40.7560   16.1740   42.7600 C.3    88  VAL88       0.0290
     53  CG1       39.3220   16.5500   42.3950 C.3    88  VAL88       0.0023
     54  CG2       41.5380   17.4360   43.1060 C.3    88  VAL88       0.0023
     55  N         38.6430   15.1010   45.2430 N.am   89  ALA89      -0.1977
     56  CA        37.7010   15.4880   46.2910 C.3    89  ALA89       0.1597
     57  C         38.0620   14.9540   47.6790 C.2    89  ALA89       0.2287
     58  O         37.5470   15.4280   48.6950 O.2    89  ALA89      -0.2864
     59  CB        36.3020   15.0020   45.9370 C.3    89  ALA89       0.0319
     60  N         28.7030   22.6140   47.1880 N.3   164  TRP164     -0.1241
     61  CA        29.4590   21.4730   46.7860 C.3   164  TRP164      0.1605
     62  C         29.0470   20.2390   47.5190 C.2   164  TRP164      0.2264
     63  O         29.4730   19.1310   47.1720 O.2   164  TRP164     -0.2867
     64  CB        30.9070   21.7590   47.0260 C.3   164  TRP164      0.0550
     65  CG        31.5350   22.5250   45.8610 C.ar  164  TRP164      0.0003
     66  CD1       31.8530   23.8670   45.9170 C.ar  164  TRP164      0.0946
     67  CD2       31.9040   21.9540   44.6700 C.ar  164  TRP164      0.0152
     68  NE1       32.4360   24.1330   44.7650 N.ar  164  TRP164     -0.2442
     69  CE2       32.4920   23.0360   43.9910 C.ar  164  TRP164      0.0810
     70  CE3       31.8320   20.6910   44.0800 C.ar  164  TRP164      0.0012
     71  CZ2       33.0220   22.8580   42.7040 C.ar  164  TRP164      0.0191
     72  CZ3       32.3680   20.5290   42.7900 C.ar  164  TRP164      0.0001
     73  CH2       32.9600   21.5980   42.1020 C.ar  164  TRP164      0.0015
     74  N         31.4070   16.8890   48.4810 N.3   167  THR167     -0.1218
     75  CA        32.6610   16.9310   47.7490 C.3   167  THR167      0.1862
     76  C         33.6920   17.8010   48.4480 C.2   167  THR167      0.2287
     77  O         34.8800   17.4920   48.3750 O.2   167  THR167     -0.2866
     78  CB        32.2740   17.4040   46.3480 C.3   167  THR167      0.1770
     79  OG1       31.4580   16.3370   45.9280 O.3   167  THR167     -0.2211
     80  CG2       33.3810   17.6420   45.3430 C.3   167  THR167      0.0375
     81  N         38.4160   30.8740   39.4950 N.3   183  GLY183     -0.1210
     82  CA        39.6170   30.2930   38.9320 C.3   183  GLY183      0.1956
     83  C         39.1700   29.4710   37.7320 C.2   183  GLY183      0.2612
     84  O         37.9810   29.2310   37.5370 O.2   183  GLY183     -0.2717
     85  N         40.0810   29.0260   36.8930 N.am  184  CYS184     -0.1956
     86  CA        39.7270   28.2260   35.7200 C.3   184  CYS184      0.1843
     87  C         40.9570   27.4220   35.3860 C.2   184  CYS184      0.2625
     88  O         42.0080   27.6270   35.9930 O.2   184  CYS184     -0.2714
     89  CB        39.3280   29.1310   34.5300 C.3   184  CYS184      0.0997
     90  SG        38.2250   28.3290   33.3310 S.3   184  CYS184     -0.0797
     91  N         40.8990   26.4730   34.4450 N.am  185  GLN185     -0.1977
     92  CA        42.0580   25.6370   34.1320 C.3   185  GLN185      0.1601
     93  C         43.2990   26.4340   33.8080 C.2   185  GLN185      0.2287
     94  O         43.2120   27.4600   33.1290 O.2   185  GLN185     -0.2864
     95  CB        41.7390   24.7240   32.9640 C.3   185  GLN185      0.0394
     96  CG        40.7560   23.5950   33.2940 C.3   185  GLN185      0.0908
     97  CD        39.2960   24.0080   33.4360 C.2   185  GLN185      0.2608
     98  OE1       38.8060   24.7970   32.6520 O.2   185  GLN185     -0.2717
     99  NE2       38.5270   23.5580   34.4130 N.am  185  GLN185     -0.0878
    100  N         45.0200   27.8970   36.2800 N.3   187  ASP187     -0.1225
    101  CA        45.1890   28.6130   37.5650 C.3   187  ASP187      0.1805
    102  C         45.5730   27.6510   38.7080 C.2   187  ASP187      0.2598
    103  O         46.1330   28.0820   39.7090 O.2   187  ASP187     -0.2718
    104  CB        43.9000   29.3140   37.9620 C.3   187  ASP187      0.1424
    105  CG        43.5290   30.4880   37.0670 C.2   187  ASP187      0.3668
    106  OD1       44.4200   31.1710   36.5860 O.co2 187  ASP187     -0.2456
    107  OD2       42.3510   30.7160   36.8690 O.co2 187  ASP187     -0.2456
    108  N         45.2740   26.3490   38.5530 N.am  188  SER188     -0.1952
    109  CA        45.6150   25.2910   39.5140 C.3   188  SER188      0.1924
    110  C         47.0020   25.3950   40.0500 C.2   188  SER188      0.2314
    111  O         47.9260   25.6970   39.2980 O.2   188  SER188     -0.2863
    112  CB        45.5650   23.9100   38.9150 C.3   188  SER188      0.2116
    113  OG        44.2510   23.4800   38.6200 O.3   188  SER188     -0.2180
    114  N         45.1560   26.5580   44.4220 N.3   206  THR206     -0.1203
    115  CA        43.9340   26.2950   43.6250 C.3   206  THR206      0.1994
    116  C         43.8910   24.8440   43.1970 C.2   206  THR206      0.2619
    117  O         44.8950   24.2950   42.7420 O.2   206  THR206     -0.2717
    118  CB        43.8760   27.2280   42.3710 C.3   206  THR206      0.1784
    119  OG1       44.1140   28.5520   42.8610 O.3   206  THR206     -0.2211
    120  CG2       42.5450   27.1680   41.6120 C.3   206  THR206      0.0376
    121  N         42.7390   24.2200   43.4450 N.am  207  SER207     -0.1937
    122  CA        42.5720   22.7840   43.2210 C.3   207  SER207      0.2055
    123  C         41.5170   22.4220   42.1960 C.2   207  SER207      0.2643
    124  O         41.8600   21.7440   41.2280 O.2   207  SER207     -0.2714
    125  CB        42.2300   22.0880   44.5420 C.3   207  SER207      0.2130
    126  OG        42.1560   20.6740   44.3980 O.3   207  SER207     -0.2179
    127  N         40.2550   22.8160   42.3280 N.am  208  PHE208     -0.1959
    128  CA        39.2800   22.4780   41.3200 C.3   208  PHE208      0.1771
    129  C         38.1030   23.4100   41.2290 C.2   208  PHE208      0.2619
    130  O         37.8560   24.2410   42.1070 O.2   208  PHE208     -0.2715
    131  CB        38.7710   21.0330   41.5380 C.3   208  PHE208      0.0574
    132  CG        38.0510   20.7070   42.8480 C.ar  208  PHE208     -0.0200
    133  CD1       36.6690   20.8290   42.9280 C.ar  208  PHE208     -0.0042
    134  CD2       38.7610   20.2240   43.9450 C.ar  208  PHE208     -0.0042
    135  CE1       35.9870   20.4710   44.0750 C.ar  208  PHE208     -0.0003
    136  CE2       38.0710   19.8640   45.0960 C.ar  208  PHE208     -0.0003
    137  CZ        36.6890   19.9870   45.1570 C.ar  208  PHE208     -0.0000
    138  N         37.4290   23.2540   40.0910 N.am  209  VAL209     -0.1963
    139  CA        36.1890   23.9020   39.7530 C.3   209  VAL209      0.1727
    140  C         35.2040   22.8380   39.2710 C.2   209  VAL209      0.2617
    141  O         35.5000   21.6590   39.1010 O.2   209  VAL209     -0.2715
    142  CB        36.3370   25.0070   38.5980 C.3   209  VAL209      0.0290
    143  CG1       37.1470   26.2030   39.1440 C.3   209  VAL209      0.0023
    144  CG2       37.0200   24.4480   37.3420 C.3   209  VAL209      0.0023
    145  N         33.9750   23.2620   39.0850 N.am  210  SER210     -0.1936
    146  CA        32.8980   22.4200   38.5780 C.3   210  SER210      0.2055
    147  C         33.2550   21.8960   37.2090 C.2   210  SER210      0.2642
    148  O         33.9130   22.5670   36.4120 O.2   210  SER210     -0.2714
    149  CB        31.6300   23.2330   38.4770 C.3   210  SER210      0.2130
    150  OG        30.6140   22.4660   37.8800 O.3   210  SER210     -0.2179
    151  N         32.8310   20.6770   36.9410 N.am  211  ARG211     -0.1977
    152  CA        33.0700   20.1570   35.6150 C.3   211  ARG211      0.1597
    153  C         32.0850   20.7780   34.6530 C.2   211  ARG211      0.2287
    154  O         32.3070   20.6940   33.4610 O.2   211  ARG211     -0.2864
    155  CB        32.9450   18.6440   35.5970 C.3   211  ARG211      0.0334
    156  CG        31.6070   18.0420   35.8430 C.3   211  ARG211      0.0492
    157  CD        31.8120   16.6400   35.3040 C.3   211  ARG211      0.2205
    158  NE        31.2890   15.7440   36.2750 N.pl3 211  ARG211     -0.0865
    159  CZ        30.0130   15.4070   36.3120 C.cat 211  ARG211      0.5346
    160  NH1       29.1480   15.7480   35.3130 N.pl3 211  ARG211      0.1354
    161  NH2       29.6870   14.6750   37.4040 N.pl3 211  ARG211      0.1354
@<TRIPOS>BOND
     1    98    97    2
     2    95    96    1
     3    95    92    1
     4    94    93    2
     5    96    97    1
     6    90    89    1
     7    97    99   am
     8   154   153    2
     9    93    92    1
    10    92    91    1
    11    91    87   am
    12    89    86    1
    13   153   152    1
    14   157   156    1
    15   157   158    1
    16   160   159    1
    17    87    86    1
    18    87    88    2
    19   155   152    1
    20   155   156    1
    21   152   151    1
    22    86    85    1
    23   158   159    2
    24   100   101    1
    25   159   161    1
    26   148   147    2
    27   106   105   ar
    28   107   105   ar
    29    85    83   am
    30   151   147   am
    31   105   104    1
    32   147   146    1
    33   144   142    1
    34    84    83    2
    35   101   104    1
    36   101   102    1
    37    83    82    1
    38   150   149    1
    39     4     3    2
    40   149   146    1
    41   108   102   am
    42   108   109    1
    43   146   145    1
    44   142   143    1
    45   142   139    1
    46   113   112    1
    47     8    10   ar
    48     8     6   ar
    49   102   103    2
    50    10     9   ar
    51   112   109    1
    52    82    81    1
    53    31    29    1
    54     3     2    1
    55   145   140   am
    56   141   140    2
    57    38    37   ar
    58   140   139    1
    59   111   110    2
    60   109   110    1
    61   139   138    1
    62     6     5    1
    63     6     7   ar
    64   138   129   am
    65     9     7   ar
    66     5     2    1
    67    29    30    1
    68    29    26    1
    69    37    39   ar
    70    37    36    1
    71     2     1    1
    72    28    27    2
    73    27    32   am
    74    27    26    1
    75    33    36    1
    76    33    32    1
    77    33    34    1
    78   124   123    2
    79   129   128    1
    80   129   130    2
    81   128   131    1
    82   128   127    1
    83    26    25    1
    84   131   132    1
    85   120   118    1
    86    35    34    2
    87    34    40   am
    88    73    71   ar
    89    73    72   ar
    90   123   127   am
    91   123   122    1
    92   118   119    1
    93   118   115    1
    94    53    52    1
    95    22    24   ar
    96    22    20   ar
    97    71    69   ar
    98   117   116    2
    99    52    54    1
   100    52    49    1
   101    19    20   ar
   102    19    17   ar
   103    72    70   ar
   104   132   133   ar
   105   132   134   ar
   106   133   135   ar
   107    40    41    1
   108    24    23   ar
   109    20    18   ar
   110   116   121   am
   111   116   115    1
   112   122   121    1
   113   122   125    1
   114    48    49    1
   115    48    42   am
   116   115   114    1
   117    17    16   ar
   118    41    42    1
   119    41    44    1
   120   134   136   ar
   121    49    50    1
   122    69    67   ar
   123    69    68   ar
   124   135   137   ar
   125    70    67   ar
   126    42    43    2
   127   126   125    1
   128    23    21   ar
   129    18    16   ar
   130    18    21   ar
   131    67    65   ar
   132    68    66   ar
   133    16    15    1
   134    44    45    1
   135   136   137   ar
   136    50    55   am
   137    50    51    2
   138    55    56    1
   139    80    78    1
   140    46    45   ar
   141    65    66   ar
   142    65    64    1
   143    45    47   ar
   144    79    78    1
   145    59    56    1
   146    14    13    2
   147    56    57    1
   148    78    75    1
   149    15    12    1
   150    13    12    1
   151    61    64    1
   152    61    60    1
   153    61    62    1
   154    63    62    2
   155    12    11    1
   156    57    58    2
   157    75    76    1
   158    75    74    1
   159    77    76    2
