@<TRIPOS>MOLECULE
tmp/1elbA00.pdb
 136 132 0 0 0
SMALL
GASTEIGER

@<TRIPOS>ATOM
      1  N         51.4830   25.3110   32.4880 N.3    29  THR29      -0.1203
      2  CA        50.3820   24.4270   32.8400 C.3    29  THR29       0.1994
      3  C         49.6770   24.8050   34.1480 C.2    29  THR29       0.2618
      4  O         48.4920   24.5370   34.3260 O.2    29  THR29      -0.2717
      5  CB        50.9330   22.9520   32.8830 C.3    29  THR29       0.1784
      6  OG1       49.7960   22.1030   32.9720 O.3    29  THR29      -0.2211
      7  CG2       51.8580   22.6810   34.0550 C.3    29  THR29       0.0376
      8  N         50.4060   25.4440   35.0620 N.am   30  CYS30      -0.1969
      9  CA        49.9220   25.7050   36.3960 C.3    30  CYS30       0.1712
     10  C         50.6130   26.8850   37.0520 C.2    30  CYS30       0.2296
     11  O         51.6710   27.3620   36.6380 O.2    30  CYS30      -0.2864
     12  CB        50.1490   24.4820   37.3150 C.3    30  CYS30       0.0983
     13  SG        48.8540   23.2300   37.1510 S.3    30  CYS30      -0.0798
     14  N         48.2190   17.5810   41.5480 N.3    45  HIS45      -0.1241
     15  CA        47.7400   17.1590   40.2470 C.3    45  HIS45       0.1621
     16  C         48.4330   17.8370   39.0800 C.2    45  HIS45       0.2264
     17  O         48.3350   17.3580   37.9460 O.2    45  HIS45      -0.2867
     18  CB        46.1980   17.3850   40.1350 C.3    45  HIS45       0.0745
     19  CG        45.6750   18.8070   39.8710 C.ar   45  HIS45       0.0817
     20  ND1       45.0190   19.6040   40.7150 N.ar   45  HIS45      -0.2268
     21  CD2       45.7650   19.4800   38.6650 C.ar   45  HIS45       0.1154
     22  CE1       44.7190   20.7080   40.0840 C.ar   45  HIS45       0.1986
     23  NE2       45.1670   20.6230   38.8520 N.ar   45  HIS45      -0.2212
     24  N         48.0010   11.8200   48.4910 N.3    83  TRP83      -0.1241
     25  CA        47.3600   12.2610   47.2540 C.3    83  TRP83       0.1605
     26  C         47.0900   11.1180   46.3180 C.2    83  TRP83       0.2264
     27  O         47.9660   10.3380   45.9560 O.2    83  TRP83      -0.2867
     28  CB        48.2100   13.3240   46.4760 C.3    83  TRP83       0.0550
     29  CG        47.7220   13.6720   45.0560 C.ar   83  TRP83       0.0003
     30  CD1       48.4470   13.2530   43.9570 C.ar   83  TRP83       0.0946
     31  CD2       46.5810   14.3400   44.6880 C.ar   83  TRP83       0.0152
     32  NE1       47.7710   13.6340   42.9110 N.ar   83  TRP83      -0.2442
     33  CE2       46.6690   14.2750   43.3010 C.ar   83  TRP83       0.0810
     34  CE3       45.5050   14.9750   45.2720 C.ar   83  TRP83       0.0012
     35  CZ2       45.7040   14.8190   42.5030 C.ar   83  TRP83       0.0191
     36  CZ3       44.5310   15.5230   44.4680 C.ar   83  TRP83       0.0001
     37  CH2       44.6260   15.4510   43.0900 C.ar   83  TRP83       0.0015
     38  N         45.5940   10.5320   42.5270 N.3    85  THR85      -0.1203
     39  CA        45.2420   11.0540   41.2010 C.3    85  THR85       0.1994
     40  C         43.7520   10.9260   40.8030 C.2    85  THR85       0.2617
     41  O         43.1470   11.8160   40.1980 O.2    85  THR85      -0.2717
     42  CB        46.1820   10.3270   40.1920 C.3    85  THR85       0.1784
     43  OG1       47.5390   10.6000   40.5450 O.3    85  THR85      -0.2211
     44  CG2       45.9730   10.8140   38.7800 C.3    85  THR85       0.0376
     45  N         43.1420    9.7980   41.1970 N.am   86  ASP86      -0.1973
     46  CA        41.7400    9.4720   40.9380 C.3    86  ASP86       0.1709
     47  C         40.7410   10.1270   41.8840 C.2    86  ASP86       0.2293
     48  O         39.5190    9.9800   41.7180 O.2    86  ASP86      -0.2864
     49  CB        41.4990    7.9600   41.0380 C.3    86  ASP86       0.1436
     50  CG        42.2980    7.0500   40.1130 C.2    86  ASP86       0.3671
     51  OD1       42.3580    7.3240   38.9160 O.co2  86  ASP86      -0.2456
     52  OD2       42.8420    6.0560   40.5970 O.co2  86  ASP86      -0.2456
     53  N         40.3750   13.8730   43.4310 N.3    88  VAL88      -0.1245
     54  CA        40.6740   15.2740   43.8040 C.3    88  VAL88       0.1561
     55  C         39.8590   15.5970   45.0420 C.2    88  VAL88       0.2260
     56  O         40.3730   16.2720   45.9280 O.2    88  VAL88      -0.2867
     57  CB        40.2330   16.4490   42.8660 C.3    88  VAL88       0.0252
     58  CG1       41.4320   17.2950   42.5120 C.3    88  VAL88       0.0019
     59  CG2       39.5210   15.9250   41.6600 C.3    88  VAL88       0.0019
     60  N         38.5320   30.9000   39.4920 N.3   183  GLY183     -0.1210
     61  CA        39.6800   30.2020   38.9210 C.3   183  GLY183      0.1956
     62  C         39.1920   29.4760   37.6690 C.2   183  GLY183      0.2612
     63  O         37.9860   29.3540   37.4360 O.2   183  GLY183     -0.2717
     64  N         40.0910   29.0480   36.8100 N.am  184  CYS184     -0.1956
     65  CA        39.7300   28.2410   35.6520 C.3   184  CYS184      0.1843
     66  C         40.9820   27.4590   35.2690 C.2   184  CYS184      0.2625
     67  O         42.0170   27.6620   35.9050 O.2   184  CYS184     -0.2714
     68  CB        39.2520   29.1620   34.5260 C.3   184  CYS184      0.0997
     69  SG        38.2250   28.3640   33.2630 S.3   184  CYS184     -0.0797
     70  N         40.9750   26.5530   34.2800 N.am  185  GLN185     -0.1963
     71  CA        42.1320   25.7110   34.0090 C.3   185  GLN185      0.1733
     72  C         43.4330   26.4400   33.7820 C.2   185  GLN185      0.2616
     73  O         43.4030   27.4960   33.1460 O.2   185  GLN185     -0.2715
     74  CB        41.8780   24.8260   32.8070 C.3   185  GLN185      0.0408
     75  CG        40.9420   23.6280   33.0830 C.3   185  GLN185      0.0908
     76  CD        39.4990   24.0320   33.2540 C.2   185  GLN185      0.2608
     77  OE1       39.0240   24.9190   32.5520 O.2   185  GLN185     -0.2717
     78  NE2       38.7510   23.4220   34.1590 N.am  185  GLN185     -0.0878
     79  N         44.5620   25.9680   34.3360 N.am  186  GLY186     -0.1955
     80  CA        45.8040   26.6970   34.1860 C.3   186  GLY186      0.1869
     81  C         46.1400   27.5540   35.4070 C.2   186  GLY186      0.2309
     82  O         47.2840   27.9760   35.5950 O.2   186  GLY186     -0.2863
     83  N         45.3940   26.3090   38.4250 N.3   188  SER188     -0.1217
     84  CA        45.6650   25.3310   39.4740 C.3   188  SER188      0.1889
     85  C         47.0530   25.4000   40.0540 C.2   188  SER188      0.2288
     86  O         48.0150   25.6950   39.3450 O.2   188  SER188     -0.2866
     87  CB        45.5120   23.9560   38.9760 C.3   188  SER188      0.2089
     88  OG        44.1520   23.7530   38.6970 O.3   188  SER188     -0.2183
     89  N         45.1790   26.5670   44.4980 N.3   206  THR206     -0.1203
     90  CA        44.0350   26.3020   43.6230 C.3   206  THR206      0.1994
     91  C         44.0180   24.8220   43.1830 C.2   206  THR206      0.2619
     92  O         45.0360   24.2330   42.7900 O.2   206  THR206     -0.2717
     93  CB        44.0920   27.2910   42.3780 C.3   206  THR206      0.1784
     94  OG1       44.2830   28.6160   42.8530 O.3   206  THR206     -0.2211
     95  CG2       42.7900   27.3380   41.5880 C.3   206  THR206      0.0376
     96  N         42.8510   24.2060   43.3300 N.am  207  SER207     -0.1937
     97  CA        42.7270   22.7790   43.1140 C.3   207  SER207      0.2055
     98  C         41.6180   22.4610   42.1300 C.2   207  SER207      0.2643
     99  O         41.8920   21.7730   41.1480 O.2   207  SER207     -0.2714
    100  CB        42.4400   22.0960   44.4570 C.3   207  SER207      0.2130
    101  OG        42.2390   20.6930   44.3460 O.3   207  SER207     -0.2179
    102  N         40.3820   22.9380   42.3410 N.am  208  PHE208     -0.1959
    103  CA        39.3340   22.6370   41.3970 C.3   208  PHE208      0.1771
    104  C         38.1470   23.5810   41.2780 C.2   208  PHE208      0.2619
    105  O         37.9370   24.4730   42.0980 O.2   208  PHE208     -0.2715
    106  CB        38.8120   21.2090   41.6490 C.3   208  PHE208      0.0574
    107  CG        38.0500   20.8670   42.9090 C.ar  208  PHE208     -0.0200
    108  CD1       36.6810   21.0070   42.9570 C.ar  208  PHE208     -0.0042
    109  CD2       38.7150   20.3380   43.9880 C.ar  208  PHE208     -0.0042
    110  CE1       35.9870   20.6080   44.0820 C.ar  208  PHE208     -0.0003
    111  CE2       38.0130   19.9430   45.1020 C.ar  208  PHE208     -0.0003
    112  CZ        36.6530   20.0720   45.1570 C.ar  208  PHE208     -0.0000
    113  N         37.4500   23.4730   40.1380 N.am  209  VAL209     -0.1963
    114  CA        36.1790   24.1350   39.9180 C.3   209  VAL209      0.1727
    115  C         35.2330   23.0220   39.4600 C.2   209  VAL209      0.2617
    116  O         35.5540   21.8310   39.3860 O.2   209  VAL209     -0.2715
    117  CB        36.2210   25.3000   38.7890 C.3   209  VAL209      0.0290
    118  CG1       37.1820   26.3700   39.2080 C.3   209  VAL209      0.0023
    119  CG2       36.6760   24.8110   37.4190 C.3   209  VAL209      0.0023
    120  N         34.0230   23.4330   39.1490 N.am  210  SER210     -0.1936
    121  CA        32.9820   22.5800   38.6230 C.3   210  SER210      0.2055
    122  C         33.2690   22.0610   37.2210 C.2   210  SER210      0.2642
    123  O         33.8680   22.7300   36.3720 O.2   210  SER210     -0.2714
    124  CB        31.7040   23.3630   38.6050 C.3   210  SER210      0.2130
    125  OG        30.6750   22.5620   38.1360 O.3   210  SER210     -0.2179
    126  N         32.7600   20.8540   36.9670 N.am  211  ARG211     -0.1977
    127  CA        32.8860   20.2250   35.6550 C.3   211  ARG211      0.1597
    128  C         31.9750   20.9370   34.6660 C.2   211  ARG211      0.2287
    129  O         32.0980   20.8040   33.4480 O.2   211  ARG211     -0.2864
    130  CB        32.4290   18.7970   35.6300 C.3   211  ARG211      0.0334
    131  CG        33.1050   17.7330   36.4460 C.3   211  ARG211      0.0492
    132  CD        33.1100   16.4460   35.5920 C.3   211  ARG211      0.2205
    133  NE        31.8280   16.2530   34.9430 N.pl3 211  ARG211     -0.0865
    134  CZ        30.8380   15.6100   35.5470 C.cat 211  ARG211      0.5346
    135  NH1       31.0270   14.9040   36.6670 N.pl3 211  ARG211      0.1354
    136  NH2       29.6560   15.6420   34.9500 N.pl3 211  ARG211      0.1354
@<TRIPOS>BOND
     1     1     2    1
     2    77    76    2
     3    74    75    1
     4    74    71    1
     5     2     5    1
     6     2     3    1
     7     5     6    1
     8     5     7    1
     9    75    76    1
    10    73    72    2
    11    76    78   am
    12    69    68    1
    13   129   128    2
    14    72    71    1
    15    72    79   am
    16    71    70    1
    17     3     4    2
    18     3     8   am
    19    80    79    1
    20    80    81    1
    21    70    66   am
    22    68    65    1
    23   128   127    1
    24   133   134    2
    25   133   132    1
    26   136   134    1
    27     8     9    1
    28    66    65    1
    29    66    67    2
    30    81    82    2
    31   134   135    1
    32   132   131    1
    33   130   127    1
    34   130   131    1
    35    65    64    1
    36   127   126    1
    37   123   122    2
    38     9    10    1
    39     9    12    1
    40    11    10    2
    41    64    62   am
    42   126   122   am
    43    13    12    1
    44   122   121    1
    45   119   117    1
    46    63    62    2
    47    62    61    1
    48    17    16    2
    49   125   124    1
    50    83    84    1
    51   124   121    1
    52   121   120    1
    53    21    23   ar
    54    21    19   ar
    55    88    87    1
    56    44    42    1
    57   117   118    1
    58   117   114    1
    59    23    22   ar
    60    51    50   ar
    61    61    60    1
    62    87    84    1
    63    16    15    1
    64   120   115   am
    65    86    85    2
    66   116   115    2
    67   115   114    1
    68    84    85    1
    69    19    18    1
    70    19    20   ar
    71   114   113    1
    72    22    20   ar
    73    50    52   ar
    74    50    49    1
    75    18    15    1
    76   113   104   am
    77    42    43    1
    78    42    39    1
    79    41    40    2
    80    15    14    1
    81    40    45   am
    82    40    39    1
    83    46    49    1
    84    46    45    1
    85    46    47    1
    86    99    98    2
    87    39    38    1
    88   104   103    1
    89   104   105    2
    90   103   106    1
    91   103   102    1
    92    95    93    1
    93   106   107    1
    94    59    57    1
    95    48    47    2
    96    98   102   am
    97    98    97    1
    98    93    94    1
    99    93    90    1
   100    35    37   ar
   101    35    33   ar
   102    58    57    1
   103    92    91    2
   104    57    54    1
   105   107   108   ar
   106   107   109   ar
   107    32    33   ar
   108    32    30   ar
   109   108   110   ar
   110    37    36   ar
   111    97    96    1
   112    97   100    1
   113    91    96   am
   114    91    90    1
   115    33    31   ar
   116    53    54    1
   117    90    89    1
   118    54    55    1
   119    30    29   ar
   120   109   111   ar
   121   110   112   ar
   122   101   100    1
   123    36    34   ar
   124    31    29   ar
   125    31    34   ar
   126    55    56    2
   127    29    28    1
   128   111   112   ar
   129    27    26    2
   130    26    25    1
   131    28    25    1
   132    25    24    1
