@<TRIPOS>MOLECULE
tmp/1elcA00.pdb
 177 173 0 0 0
SMALL
GASTEIGER

@<TRIPOS>ATOM
      1  N         50.4430   25.5580   32.5140 N.3    29  THR29      -0.1203
      2  CA        49.3830   24.6720   32.9090 C.3    29  THR29       0.1994
      3  C         48.6150   25.0310   34.2060 C.2    29  THR29       0.2618
      4  O         47.4050   24.8400   34.3340 O.2    29  THR29      -0.2717
      5  CB        50.0420   23.2810   32.9180 C.3    29  THR29       0.1784
      6  OG1       48.9250   22.4400   33.0550 O.3    29  THR29      -0.2211
      7  CG2       51.1440   23.0330   33.9580 C.3    29  THR29       0.0376
      8  N         49.3700   25.6300   35.1220 N.am   30  CYS30      -0.1969
      9  CA        48.9050   25.8750   36.4600 C.3    30  CYS30       0.1712
     10  C         49.6170   27.0610   37.1100 C.2    30  CYS30       0.2296
     11  O         50.6850   27.5230   36.6870 O.2    30  CYS30      -0.2864
     12  CB        49.1480   24.6190   37.3190 C.3    30  CYS30       0.0983
     13  SG        47.8770   23.3710   37.1270 S.3    30  CYS30      -0.0798
     14  N         47.2630   17.7970   41.5770 N.3    45  HIS45      -0.1241
     15  CA        46.7040   17.3750   40.3080 C.3    45  HIS45       0.1621
     16  C         47.3980   18.0230   39.1400 C.2    45  HIS45       0.2264
     17  O         47.2770   17.5070   38.0210 O.2    45  HIS45      -0.2867
     18  CB        45.2070   17.6650   40.2310 C.3    45  HIS45       0.0745
     19  CG        44.7270   19.0850   39.9530 C.ar   45  HIS45       0.0817
     20  ND1       44.0330   19.8310   40.8080 N.ar   45  HIS45      -0.2268
     21  CD2       44.8750   19.8020   38.7770 C.ar   45  HIS45       0.1154
     22  CE1       43.7650   20.9590   40.2240 C.ar   45  HIS45       0.1986
     23  NE2       44.2680   20.9460   39.0060 N.ar   45  HIS45      -0.2212
     24  N         50.2830   15.5050   38.0810 N.3    48  ASP48      -0.1239
     25  CA        50.0390   14.0680   37.9740 C.3    48  ASP48       0.1674
     26  C         50.5540   13.4700   36.6640 C.2    48  ASP48       0.2266
     27  O         50.8300   12.2660   36.5600 O.2    48  ASP48      -0.2867
     28  CB        48.5580   13.7730   38.1110 C.3    48  ASP48       0.1410
     29  CG        48.0640   13.6980   39.5620 C.2    48  ASP48       0.3668
     30  OD1       48.8740   13.6000   40.5070 O.co2  48  ASP48      -0.2456
     31  OD2       46.8360   13.7540   39.7190 O.co2  48  ASP48      -0.2456
     32  N         46.9720   12.1820   48.5900 N.3    83  TRP83      -0.1241
     33  CA        46.3770   12.5890   47.3280 C.3    83  TRP83       0.1605
     34  C         45.9790   11.3960   46.4660 C.2    83  TRP83       0.2264
     35  O         46.8160   10.4980   46.2560 O.2    83  TRP83      -0.2867
     36  CB        47.3530   13.4570   46.4790 C.3    83  TRP83       0.0550
     37  CG        46.8230   13.7680   45.0710 C.ar   83  TRP83       0.0003
     38  CD1       47.5100   13.3180   43.9780 C.ar   83  TRP83       0.0946
     39  CD2       45.6660   14.4310   44.7400 C.ar   83  TRP83       0.0152
     40  NE1       46.7950   13.6740   42.9510 N.ar   83  TRP83      -0.2442
     41  CE2       45.6940   14.3360   43.3440 C.ar   83  TRP83       0.0810
     42  CE3       44.5910   15.0680   45.3740 C.ar   83  TRP83       0.0012
     43  CZ2       44.6600   14.8760   42.5770 C.ar   83  TRP83       0.0191
     44  CZ3       43.5550   15.5960   44.6080 C.ar   83  TRP83       0.0001
     45  CH2       43.5890   15.5020   43.2240 C.ar   83  TRP83       0.0015
     46  N         44.4360   10.7440   42.6120 N.3    85  THR85      -0.1218
     47  CA        44.1190   11.2690   41.2930 C.3    85  THR85       0.1862
     48  C         42.6960   11.0850   40.8560 C.2    85  THR85       0.2287
     49  O         42.1430   11.9370   40.1610 O.2    85  THR85      -0.2866
     50  CB        44.9340   10.6440   40.1770 C.3    85  THR85       0.1770
     51  OG1       46.2560   10.5560   40.6480 O.3    85  THR85      -0.2211
     52  CG2       44.8320   11.4590   38.8610 C.3    85  THR85       0.0375
     53  N         39.4930   13.8050   43.5640 N.3    88  VAL88      -0.1245
     54  CA        39.8630   15.1520   44.0040 C.3    88  VAL88       0.1561
     55  C         38.9780   15.6280   45.1670 C.2    88  VAL88       0.2260
     56  O         39.4320   16.3830   46.0230 O.2    88  VAL88      -0.2867
     57  CB        39.8090   16.0680   42.7310 C.3    88  VAL88       0.0252
     58  CG1       38.4100   16.3970   42.3210 C.3    88  VAL88       0.0019
     59  CG2       40.5670   17.3360   43.0050 C.3    88  VAL88       0.0019
     60  N         34.3730   30.0030   30.5630 N.3   137  THR137     -0.1203
     61  CA        34.2440   28.5660   30.4890 C.3   137  THR137      0.1994
     62  C         34.4840   28.1510   29.0190 C.2   137  THR137      0.2617
     63  O         33.8810   28.7080   28.0880 O.2   137  THR137     -0.2717
     64  CB        32.8460   28.1960   30.9560 C.3   137  THR137      0.1784
     65  OG1       32.7150   28.5790   32.3140 O.3   137  THR137     -0.2211
     66  CG2       32.5960   26.7230   30.8520 C.3   137  THR137      0.0376
     67  N         35.3820   27.1600   28.8070 N.am  138  ASN138     -0.1974
     68  CA        35.7910   26.6680   27.4650 C.3   138  ASN138      0.1688
     69  C         36.3490   27.7350   26.5220 C.2   138  ASN138      0.2292
     70  O         36.2370   27.6810   25.2940 O.2   138  ASN138     -0.2864
     71  CB        34.6420   25.9980   26.7340 C.3   138  ASN138      0.1181
     72  CG        34.1530   24.7590   27.4600 C.2   138  ASN138      0.2629
     73  OD1       34.8680   23.8230   27.8170 O.2   138  ASN138     -0.2716
     74  ND2       32.8440   24.8220   27.6710 N.am  138  ASN138     -0.0877
     75  N         37.4260   31.0920   39.5610 N.3   183  GLY183     -0.1210
     76  CA        38.6150   30.4450   39.0420 C.3   183  GLY183      0.1956
     77  C         38.1860   29.5920   37.8340 C.2   183  GLY183      0.2612
     78  O         36.9990   29.2810   37.6950 O.2   183  GLY183     -0.2717
     79  N         39.1010   29.2520   36.9280 N.am  184  CYS184     -0.1956
     80  CA        38.7810   28.4120   35.7730 C.3   184  CYS184      0.1843
     81  C         40.0750   27.6640   35.4360 C.2   184  CYS184      0.2625
     82  O         41.0860   27.7990   36.1160 O.2   184  CYS184     -0.2714
     83  CB        38.3040   29.2840   34.6260 C.3   184  CYS184      0.0997
     84  SG        37.2500   28.4540   33.4080 S.3   184  CYS184     -0.0797
     85  N         40.0110   26.7010   34.5190 N.am  185  GLN185     -0.1963
     86  CA        41.1230   25.9080   34.0940 C.3   185  GLN185      0.1733
     87  C         42.3880   26.6790   33.8010 C.2   185  GLN185      0.2617
     88  O         42.3460   27.6960   33.0830 O.2   185  GLN185     -0.2715
     89  CB        40.7110   25.1460   32.8600 C.3   185  GLN185      0.0408
     90  CG        40.0240   23.8840   33.3050 C.3   185  GLN185      0.0908
     91  CD        38.5140   23.9450   33.3860 C.2   185  GLN185      0.2608
     92  OE1       37.9270   22.9300   33.7430 O.2   185  GLN185     -0.2717
     93  NE2       37.8260   25.0030   32.9870 N.am  185  GLN185     -0.0878
     94  N         43.5100   26.2070   34.3770 N.am  186  GLY186     -0.1940
     95  CA        44.7710   26.9420   34.2470 C.3   186  GLY186      0.2014
     96  C         45.0760   27.8440   35.4510 C.2   186  GLY186      0.2639
     97  O         46.1540   28.4270   35.5240 O.2   186  GLY186     -0.2714
     98  N         44.1010   28.0700   36.3220 N.am  187  ASP187     -0.1957
     99  CA        44.3240   28.7760   37.5730 C.3   187  ASP187      0.1840
    100  C         44.5840   27.7790   38.6820 C.2   187  ASP187      0.2622
    101  O         44.9360   28.1940   39.7830 O.2   187  ASP187     -0.2715
    102  CB        43.1290   29.5870   38.0410 C.3   187  ASP187      0.1450
    103  CG        42.6990   30.6960   37.1480 C.2   187  ASP187      0.3671
    104  OD1       43.5810   31.3700   36.6670 O.co2 187  ASP187     -0.2456
    105  OD2       41.4920   30.9080   37.0020 O.co2 187  ASP187     -0.2456
    106  N         44.4110   26.4710   38.4420 N.am  188  SER188     -0.1950
    107  CA        44.6810   25.4050   39.4120 C.3   188  SER188      0.1924
    108  C         46.0440   25.4770   40.0400 C.2   188  SER188      0.2314
    109  O         46.9970   25.8120   39.3300 O.2   188  SER188     -0.2863
    110  CB        44.6030   24.1340   38.7600 C.3   188  SER188      0.2116
    111  OG        43.2510   23.8300   38.5990 O.3   188  SER188     -0.2180
    112  N         44.2180   26.7290   44.4730 N.3   206  THR206     -0.1203
    113  CA        43.0420   26.3860   43.6490 C.3   206  THR206      0.1994
    114  C         42.9760   24.9130   43.2220 C.2   206  THR206      0.2619
    115  O         43.9420   24.3400   42.6920 O.2   206  THR206     -0.2717
    116  CB        43.0510   27.3310   42.4480 C.3   206  THR206      0.1784
    117  OG1       43.1810   28.6850   42.8820 O.3   206  THR206     -0.2211
    118  CG2       41.7240   27.2600   41.7420 C.3   206  THR206      0.0376
    119  N         41.8280   24.3070   43.4300 N.am  207  SER207     -0.1937
    120  CA        41.6710   22.8840   43.2230 C.3   207  SER207      0.2055
    121  C         40.6210   22.5020   42.2030 C.2   207  SER207      0.2643
    122  O         40.9520   21.7570   41.2650 O.2   207  SER207     -0.2714
    123  CB        41.3490   22.2150   44.5860 C.3   207  SER207      0.2130
    124  OG        41.2700   20.7800   44.4780 O.3   207  SER207     -0.2179
    125  N         39.3540   22.9160   42.3580 N.am  208  PHE208     -0.1959
    126  CA        38.3940   22.5540   41.3340 C.3   208  PHE208      0.1771
    127  C         37.2800   23.5580   41.1670 C.2   208  PHE208      0.2619
    128  O         37.1490   24.4690   41.9730 O.2   208  PHE208     -0.2715
    129  CB        37.7710   21.1630   41.6210 C.3   208  PHE208      0.0574
    130  CG        37.0870   20.8250   42.9480 C.ar  208  PHE208     -0.0200
    131  CD1       37.8330   20.2950   44.0180 C.ar  208  PHE208     -0.0042
    132  CD2       35.6860   20.9940   43.0880 C.ar  208  PHE208     -0.0042
    133  CE1       37.1850   19.9330   45.2120 C.ar  208  PHE208     -0.0003
    134  CE2       35.0630   20.6270   44.2880 C.ar  208  PHE208     -0.0003
    135  CZ        35.8010   20.0990   45.3500 C.ar  208  PHE208     -0.0000
    136  N         36.5480   23.4370   40.0670 N.am  209  VAL209     -0.1963
    137  CA        35.2930   24.1560   39.9210 C.3   209  VAL209      0.1727
    138  C         34.3210   23.0890   39.4530 C.2   209  VAL209      0.2617
    139  O         34.6320   21.9060   39.3690 O.2   209  VAL209     -0.2715
    140  CB        35.2810   25.3600   38.8350 C.3   209  VAL209      0.0290
    141  CG1       36.1430   26.5200   39.2610 C.3   209  VAL209      0.0023
    142  CG2       35.8220   24.9060   37.5320 C.3   209  VAL209      0.0023
    143  N         33.1270   23.4830   39.0870 N.am  210  SER210     -0.1936
    144  CA        32.0910   22.5710   38.6210 C.3   210  SER210      0.2055
    145  C         32.3830   22.0760   37.2160 C.2   210  SER210      0.2643
    146  O         32.9100   22.7830   36.3640 O.2   210  SER210     -0.2714
    147  CB        30.7560   23.3010   38.6460 C.3   210  SER210      0.2130
    148  OG        29.6950   22.6020   38.0520 O.3   210  SER210     -0.2179
    149  N         31.9020   20.8580   37.0070 N.am  211  ARG211     -0.1963
    150  CA        31.9210   20.0740   35.7640 C.3   211  ARG211      0.1729
    151  C         31.0300   20.7570   34.7050 C.2   211  ARG211      0.2616
    152  O         31.1970   20.5800   33.5090 O.2   211  ARG211     -0.2715
    153  CB        31.4180   18.6620   36.1440 C.3   211  ARG211      0.0348
    154  CG        31.5600   17.5010   35.1670 C.3   211  ARG211      0.0492
    155  CD        31.0090   16.1610   35.7140 C.3   211  ARG211      0.2205
    156  NE        29.5730   16.1220   35.8760 N.pl3 211  ARG211     -0.0865
    157  CZ        28.7360   16.1680   34.8370 C.cat 211  ARG211      0.5346
    158  NH1       29.1260   16.2790   33.5580 N.pl3 211  ARG211      0.1354
    159  NH2       27.4390   16.1530   35.0890 N.pl3 211  ARG211      0.1354
    160  N         30.0490   21.5350   35.1820 N.am  212  LEU212     -0.1963
    161  CA        29.1110   22.2960   34.3860 C.3   212  LEU212      0.1728
    162  C         29.6740   23.6030   33.8510 C.2   212  LEU212      0.2617
    163  O         29.2190   24.1200   32.8330 O.2   212  LEU212     -0.2715
    164  CB        27.9100   22.5920   35.2250 C.3   212  LEU212      0.0311
    165  CG        27.3020   21.3970   35.9940 C.3   212  LEU212      0.0022
    166  CD1       26.2450   21.9320   36.9350 C.3   212  LEU212      0.0001
    167  CD2       26.8050   20.3280   35.0280 C.3   212  LEU212      0.0001
    168  N         30.6830   24.1730   34.4810 N.am  213  GLY213     -0.1940
    169  CA        31.2020   25.4860   34.0710 C.3   213  GLY213      0.2014
    170  C         31.9940   26.0770   35.2160 C.2   213  GLY213      0.2639
    171  O         31.8300   25.7030   36.3890 O.2   213  GLY213     -0.2714
    172  N         32.8650   27.0220   34.8510 N.am  214  CYS214     -0.1967
    173  CA        33.6530   27.7530   35.8390 C.3   214  CYS214      0.1712
    174  C         32.8600   28.6810   36.7700 C.2   214  CYS214      0.2296
    175  O         32.9020   28.5140   37.9780 O.2   214  CYS214     -0.2864
    176  CB        34.7050   28.5140   35.0560 C.3   214  CYS214      0.0983
    177  SG        35.9060   27.3420   34.4240 S.3   214  CYS214     -0.0798
@<TRIPOS>BOND
     1    70    69    2
     2    69    68    1
     3    71    72    1
     4    71    68    1
     5    72    74   am
     6    72    73    2
     7    68    67    1
     8    63    62    2
     9    67    62   am
    10    62    61    1
    11    61    60    1
    12    61    64    1
    13    66    64    1
    14    64    65    1
    15     1     2    1
    16   163   162    2
    17    89    90    1
    18    89    86    1
    19     2     5    1
    20     2     3    1
    21     5     6    1
    22     5     7    1
    23    93    91   am
    24    88    87    2
    25    90    91    1
    26    91    92    2
    27    84   177    1
    28    84    83    1
    29   152   151    2
    30   158   157    1
    31    87    86    1
    32    87    94   am
    33   162   161    1
    34   162   168   am
    35   169   168    1
    36   169   170    1
    37    86    85    1
    38     3     4    2
    39     3     8   am
    40    95    94    1
    41    95    96    1
    42   161   160    1
    43   161   164    1
    44   177   176    1
    45    85    81   am
    46    83    80    1
    47   151   160   am
    48   151   150    1
    49   157   159    1
    50   157   156    2
    51   172   170   am
    52   172   173    1
    53   167   165    1
    54   176   173    1
    55     8     9    1
    56   154   155    1
    57   154   153    1
    58   170   171    2
    59   164   165    1
    60    81    80    1
    61    81    82    2
    62    96    97    2
    63    96    98   am
    64   155   156    1
    65   150   153    1
    66   150   149    1
    67    80    79    1
    68   173   174    1
    69   165   166    1
    70    98    99    1
    71   146   145    2
    72     9    10    1
    73     9    12    1
    74    27    26    2
    75    26    25    1
    76   104   103   ar
    77    11    10    2
    78   174   175    2
    79    79    77   am
    80   105   103   ar
    81   149   145   am
    82    13    12    1
    83   103   102    1
    84   145   144    1
    85   142   140    1
    86    99   102    1
    87    99   100    1
    88    78    77    2
    89    77    76    1
    90    25    24    1
    91    25    28    1
    92    17    16    2
    93   148   147    1
    94    28    29    1
    95   106   100   am
    96   106   107    1
    97   111   110    1
    98   144   147    1
    99   144   143    1
   100   100   101    2
   101   110   107    1
   102    21    23   ar
   103    21    19   ar
   104   140   141    1
   105   140   137    1
   106    52    50    1
   107    23    22   ar
   108    76    75    1
   109   143   138   am
   110    16    15    1
   111   109   108    2
   112   139   138    2
   113   107   108    1
   114   138   137    1
   115    29    31   ar
   116    29    30   ar
   117   137   136    1
   118    19    18    1
   119    19    20   ar
   120   136   127   am
   121    49    48    2
   122    50    51    1
   123    50    47    1
   124    22    20   ar
   125    18    15    1
   126    15    14    1
   127    48    47    1
   128   127   126    1
   129   127   128    2
   130   122   121    2
   131    47    46    1
   132   126   129    1
   133   126   125    1
   134   129   130    1
   135   118   116    1
   136   121   125   am
   137   121   120    1
   138    58    57    1
   139   116   117    1
   140   116   113    1
   141    43    45   ar
   142    43    41   ar
   143   115   114    2
   144    57    59    1
   145    57    54    1
   146   130   132   ar
   147   130   131   ar
   148    40    41   ar
   149    40    38   ar
   150   132   134   ar
   151   114   119   am
   152   114   113    1
   153   120   119    1
   154   120   123    1
   155    45    44   ar
   156    41    39   ar
   157    53    54    1
   158   113   112    1
   159    38    37   ar
   160    54    55    1
   161   131   133   ar
   162   134   135   ar
   163   124   123    1
   164    44    42   ar
   165    39    37   ar
   166    39    42   ar
   167    37    36    1
   168    55    56    2
   169   133   135   ar
   170    35    34    2
   171    34    33    1
   172    36    33    1
   173    33    32    1
