@<TRIPOS>MOLECULE
tmp/1eldA00.pdb
 147 142 0 0 0
SMALL
GASTEIGER

@<TRIPOS>ATOM
      1  N         47.7840   17.6610   41.5190 N.3    45  HIS45      -0.1241
      2  CA        47.3370   17.2150   40.2020 C.3    45  HIS45       0.1621
      3  C         48.0750   17.8990   39.0360 C.2    45  HIS45       0.2264
      4  O         48.0320   17.3590   37.9400 O.2    45  HIS45      -0.2867
      5  CB        45.8100   17.4170   40.0510 C.3    45  HIS45       0.0745
      6  CG        45.3470   18.8430   39.7520 C.ar   45  HIS45       0.0817
      7  ND1       44.8390   19.6810   40.6460 N.ar   45  HIS45      -0.2268
      8  CD2       45.3350   19.4940   38.5270 C.ar   45  HIS45       0.1154
      9  CE1       44.5190   20.7900   40.0330 C.ar   45  HIS45       0.1986
     10  NE2       44.8280   20.6650   38.7570 N.ar   45  HIS45      -0.2212
     11  N         45.0590   10.8480   42.5490 N.3    85  THR85      -0.1218
     12  CA        44.5940   11.3850   41.2580 C.3    85  THR85       0.1862
     13  C         43.1280   11.1510   40.9190 C.2    85  THR85       0.2287
     14  O         42.4540   12.0270   40.3720 O.2    85  THR85      -0.2866
     15  CB        45.3730   10.7930   40.0930 C.3    85  THR85       0.1770
     16  OG1       46.7400   10.7690   40.4320 O.3    85  THR85      -0.2211
     17  CG2       45.1420   11.6040   38.8360 C.3    85  THR85       0.0375
     18  N         40.6810   10.8570   42.9730 N.3    87  ASP87      -0.1225
     19  CA        39.7620   11.3970   43.9340 C.3    87  ASP87       0.1805
     20  C         40.2110   12.7960   44.3980 C.2    87  ASP87       0.2598
     21  O         40.6980   12.9250   45.5340 O.2    87  ASP87      -0.2718
     22  CB        39.7120   10.3700   45.0550 C.3    87  ASP87       0.1424
     23  CG        38.5970   10.5810   46.0520 C.2    87  ASP87       0.3668
     24  OD1       37.7640   11.4820   45.9450 O.co2  87  ASP87      -0.2456
     25  OD2       38.5810    9.7960   46.9790 O.co2  87  ASP87      -0.2456
     26  N         40.1100   13.8800   43.5720 N.am   88  VAL88      -0.1966
     27  CA        40.5000   15.2190   44.0800 C.3    88  VAL88       0.1727
     28  C         39.6160   15.6370   45.2450 C.2    88  VAL88       0.2616
     29  O         40.0760   16.3900   46.0940 O.2    88  VAL88      -0.2715
     30  CB        40.3890   16.4480   43.0940 C.3    88  VAL88       0.0290
     31  CG1       41.4430   16.3540   42.0370 C.3    88  VAL88       0.0023
     32  CG2       39.0190   16.4960   42.4330 C.3    88  VAL88       0.0023
     33  N         38.3760   15.1210   45.2930 N.am   89  ALA89      -0.1977
     34  CA        37.4200   15.4540   46.3270 C.3    89  ALA89       0.1597
     35  C         37.8470   14.9060   47.6750 C.2    89  ALA89       0.2287
     36  O         37.3220   15.3740   48.6800 O.2    89  ALA89      -0.2864
     37  CB        36.0420   14.9080   45.9890 C.3    89  ALA89       0.0319
     38  N         45.4600   17.8430   47.7570 N.3    93  ASP93      -0.1239
     39  CA        45.9630   18.3490   46.4760 C.3    93  ASP93       0.1674
     40  C         47.0150   19.4410   46.6920 C.2    93  ASP93       0.2266
     41  O         46.7960   20.6600   46.5780 O.2    93  ASP93      -0.2867
     42  CB        44.7550   18.8640   45.6310 C.3    93  ASP93       0.1410
     43  CG        45.0600   19.0570   44.1510 C.2    93  ASP93       0.3668
     44  OD1       46.1470   18.6930   43.7100 O.co2  93  ASP93      -0.2456
     45  OD2       44.2070   19.5660   43.4280 O.co2  93  ASP93      -0.2456
     46  N         28.3260   22.6720   47.2290 N.3   164  TRP164     -0.1241
     47  CA        29.0950   21.5420   46.8000 C.3   164  TRP164      0.1605
     48  C         28.7070   20.2900   47.5290 C.2   164  TRP164      0.2264
     49  O         29.1640   19.2110   47.1500 O.2   164  TRP164     -0.2867
     50  CB        30.5610   21.8000   47.0290 C.3   164  TRP164      0.0550
     51  CG        31.2380   22.5460   45.8810 C.ar  164  TRP164      0.0003
     52  CD1       31.5430   23.8840   45.9550 C.ar  164  TRP164      0.0946
     53  CD2       31.6550   21.9850   44.6980 C.ar  164  TRP164      0.0152
     54  NE1       32.1580   24.1690   44.8280 N.ar  164  TRP164     -0.2442
     55  CE2       32.2490   23.0840   44.0450 C.ar  164  TRP164      0.0810
     56  CE3       31.6150   20.7380   44.0790 C.ar  164  TRP164      0.0012
     57  CZ2       32.8110   22.9460   42.7660 C.ar  164  TRP164      0.0191
     58  CZ3       32.1840   20.6050   42.7980 C.ar  164  TRP164      0.0001
     59  CH2       32.7790   21.7010   42.1480 C.ar  164  TRP164      0.0015
     60  N         31.1980   16.9390   48.4090 N.3   167  THR167     -0.1218
     61  CA        32.4450   17.0110   47.6560 C.3   167  THR167      0.1862
     62  C         33.4960   17.8370   48.3850 C.2   167  THR167      0.2287
     63  O         34.6740   17.4930   48.3190 O.2   167  THR167     -0.2866
     64  CB        32.0720   17.5840   46.2690 C.3   167  THR167      0.1770
     65  OG1       31.0280   16.7380   45.7790 O.3   167  THR167     -0.2211
     66  CG2       33.2270   17.6390   45.2910 C.3   167  THR167      0.0375
     67  N         38.0640   30.9500   39.4860 N.3   183  GLY183     -0.1210
     68  CA        39.2930   30.3880   38.9250 C.3   183  GLY183      0.1956
     69  C         38.8640   29.5110   37.7540 C.2   183  GLY183      0.2612
     70  O         37.6750   29.2200   37.5980 O.2   183  GLY183     -0.2717
     71  N         39.7820   29.1060   36.8930 N.am  184  CYS184     -0.1956
     72  CA        39.4040   28.2650   35.7600 C.3   184  CYS184      0.1843
     73  C         40.6590   27.4700   35.4280 C.2   184  CYS184      0.2625
     74  O         41.6820   27.6330   36.1050 O.2   184  CYS184     -0.2714
     75  CB        38.9450   29.1380   34.5670 C.3   184  CYS184      0.0997
     76  SG        37.8910   28.3220   33.3280 S.3   184  CYS184     -0.0797
     77  N         40.6230   26.5430   34.4450 N.am  185  GLN185     -0.1977
     78  CA        41.7860   25.7020   34.1470 C.3   185  GLN185      0.1601
     79  C         43.0340   26.5080   33.8430 C.2   185  GLN185      0.2287
     80  O         42.9310   27.5450   33.1870 O.2   185  GLN185     -0.2864
     81  CB        41.4710   24.8020   32.9720 C.3   185  GLN185      0.0394
     82  CG        40.4730   23.6910   33.3270 C.3   185  GLN185      0.0908
     83  CD        39.0020   24.0740   33.4350 C.2   185  GLN185      0.2608
     84  OE1       38.2300   23.4390   34.1430 O.2   185  GLN185     -0.2717
     85  NE2       38.5150   25.1010   32.7610 N.am  185  GLN185     -0.0878
     86  N         44.7680   27.9750   36.3160 N.3   187  ASP187     -0.1225
     87  CA        44.9640   28.6860   37.5850 C.3   187  ASP187      0.1805
     88  C         45.3780   27.7390   38.7460 C.2   187  ASP187      0.2598
     89  O         45.8960   28.1570   39.7810 O.2   187  ASP187     -0.2718
     90  CB        43.6840   29.3760   37.9800 C.3   187  ASP187      0.1424
     91  CG        43.3040   30.4980   37.0540 C.2   187  ASP187      0.3668
     92  OD1       44.1930   31.1530   36.5670 O.co2 187  ASP187     -0.2456
     93  OD2       42.1310   30.7170   36.8490 O.co2 187  ASP187     -0.2456
     94  N         45.1210   26.4340   38.5510 N.am  188  SER188     -0.1952
     95  CA        45.4300   25.3480   39.4760 C.3   188  SER188      0.1924
     96  C         46.8210   25.4270   40.0080 C.2   188  SER188      0.2314
     97  O         47.7530   25.7790   39.2840 O.2   188  SER188     -0.2863
     98  CB        45.2790   24.0090   38.8000 C.3   188  SER188      0.2116
     99  OG        43.8970   23.7620   38.5400 O.3   188  SER188     -0.2180
    100  N         44.8870   26.5800   44.4550 N.3   206  THR206     -0.1203
    101  CA        43.6800   26.3310   43.6480 C.3   206  THR206      0.1994
    102  C         43.6470   24.8640   43.2430 C.2   206  THR206      0.2619
    103  O         44.6750   24.3010   42.8280 O.2   206  THR206     -0.2717
    104  CB        43.6790   27.2320   42.3800 C.3   206  THR206      0.1784
    105  OG1       43.8820   28.5710   42.8400 O.3   206  THR206     -0.2211
    106  CG2       42.3720   27.1340   41.5660 C.3   206  THR206      0.0376
    107  N         42.4770   24.2480   43.4580 N.am  207  SER207     -0.1937
    108  CA        42.3330   22.8190   43.1870 C.3   207  SER207      0.2055
    109  C         41.2850   22.4740   42.1330 C.2   207  SER207      0.2643
    110  O         41.6180   21.7780   41.1770 O.2   207  SER207     -0.2714
    111  CB        41.9920   22.0760   44.5030 C.3   207  SER207      0.2130
    112  OG        41.9880   20.6500   44.3730 O.3   207  SER207     -0.2179
    113  N         40.0320   22.8740   42.2910 N.am  208  PHE208     -0.1959
    114  CA        39.0020   22.5370   41.3390 C.3   208  PHE208      0.1771
    115  C         37.7960   23.4600   41.2330 C.2   208  PHE208      0.2619
    116  O         37.5250   24.2860   42.1080 O.2   208  PHE208     -0.2715
    117  CB        38.5220   21.0650   41.6210 C.3   208  PHE208      0.0574
    118  CG        37.7700   20.7150   42.9190 C.ar  208  PHE208     -0.0200
    119  CD1       36.3790   20.7950   42.9770 C.ar  208  PHE208     -0.0042
    120  CD2       38.4840   20.2430   44.0350 C.ar  208  PHE208     -0.0042
    121  CE1       35.7150   20.4180   44.1420 C.ar  208  PHE208     -0.0003
    122  CE2       37.8080   19.8710   45.1900 C.ar  208  PHE208     -0.0003
    123  CZ        36.4260   19.9610   45.2490 C.ar  208  PHE208     -0.0000
    124  N         37.0850   23.3140   40.0880 N.am  209  VAL209     -0.1963
    125  CA        35.8490   24.0120   39.7630 C.3   209  VAL209      0.1727
    126  C         34.8720   22.9250   39.2950 C.2   209  VAL209      0.2617
    127  O         35.2030   21.7330   39.1200 O.2   209  VAL209     -0.2715
    128  CB        36.0330   25.1090   38.5980 C.3   209  VAL209      0.0290
    129  CG1       36.9610   26.2200   39.0890 C.3   209  VAL209      0.0023
    130  CG2       36.6420   24.5080   37.3260 C.3   209  VAL209      0.0023
    131  N         33.6300   23.3570   39.1050 N.am  210  SER210     -0.1936
    132  CA        32.5700   22.5020   38.6160 C.3   210  SER210      0.2055
    133  C         32.8520   21.9420   37.2300 C.2   210  SER210      0.2642
    134  O         33.4420   22.6090   36.3920 O.2   210  SER210     -0.2714
    135  CB        31.3280   23.3250   38.6020 C.3   210  SER210      0.2130
    136  OG        30.2850   22.5500   38.0790 O.3   210  SER210     -0.2179
    137  N         32.5530   20.6540   37.0400 N.am  211  ARG211     -0.1977
    138  CA        32.5020   19.9820   35.7400 C.3   211  ARG211      0.1597
    139  C         31.6320   20.7880   34.7880 C.2   211  ARG211      0.2287
    140  O         31.8780   20.8370   33.5970 O.2   211  ARG211     -0.2864
    141  CB        31.8830   18.5940   35.8580 C.3   211  ARG211      0.0334
    142  CG        32.8640   17.4720   36.0980 C.3   211  ARG211      0.0492
    143  CD        32.1860   16.1360   36.4150 C.3   211  ARG211      0.2205
    144  NE        30.9990   15.9070   35.6250 N.pl3 211  ARG211     -0.0865
    145  CZ        29.9110   15.3880   36.1720 C.cat 211  ARG211      0.5346
    146  NH1       29.8350   14.9080   37.4270 N.pl3 211  ARG211      0.1354
    147  NH2       28.8720   15.2960   35.3710 N.pl3 211  ARG211      0.1354
@<TRIPOS>BOND
     1    85    83   am
     2    81    82    1
     3    81    78    1
     4    80    79    2
     5    82    83    1
     6    76    75    1
     7    83    84    2
     8   140   139    2
     9    79    78    1
    10    78    77    1
    11    77    73   am
    12    75    72    1
    13   139   138    1
    14   147   145    1
    15    73    72    1
    16    73    74    2
    17   144   145    2
    18   144   143    1
    19   138   141    1
    20   138   137    1
    21    72    71    1
    22   141   142    1
    23   142   143    1
    24   145   146    1
    25    86    87    1
    26   134   133    2
    27    92    91   ar
    28    93    91   ar
    29    71    69   am
    30   137   133   am
    31    91    90    1
    32   133   132    1
    33   130   128    1
    34    87    90    1
    35    87    88    1
    36    70    69    2
    37    69    68    1
    38     4     3    2
    39   136   135    1
    40     8    10   ar
    41     8     6   ar
    42    99    98    1
    43    94    88   am
    44    94    95    1
    45   128   129    1
    46   128   125    1
    47   135   132    1
    48   132   131    1
    49    88    89    2
    50    10     9   ar
    51    98    95    1
    52    17    15    1
    53    68    67    1
    54     3     2    1
    55   131   126   am
    56   127   126    2
    57    97    96    2
    58   126   125    1
    59    95    96    1
    60     6     5    1
    61     6     7   ar
    62   125   124    1
    63     9     7   ar
    64     5     2    1
    65   124   115   am
    66    15    16    1
    67    15    12    1
    68     2     1    1
    69    14    13    2
    70    13    12    1
    71   110   109    2
    72   115   114    1
    73   115   116    2
    74    12    11    1
    75   114   117    1
    76   114   113    1
    77   106   104    1
    78   117   118    1
    79    31    30    1
    80   109   113   am
    81   109   108    1
    82    59    57   ar
    83    59    58   ar
    84   104   105    1
    85   104   101    1
    86    32    30    1
    87    57    55   ar
    88    58    56   ar
    89   103   102    2
    90   118   119   ar
    91   118   120   ar
    92    18    19    1
    93   119   121   ar
    94    30    27    1
    95   108   107    1
    96   108   111    1
    97   102   107   am
    98   102   101    1
    99    45    43   ar
   100    26    27    1
   101    26    20   am
   102   101   100    1
   103    44    43   ar
   104    19    20    1
   105    19    22    1
   106   120   122   ar
   107    55    53   ar
   108    55    54   ar
   109    56    53   ar
   110    27    28    1
   111   121   123   ar
   112    43    42    1
   113   112   111    1
   114    20    21    2
   115    53    51   ar
   116    54    52   ar
   117    22    23    1
   118   122   123   ar
   119    28    33   am
   120    28    29    2
   121    66    64    1
   122    33    34    1
   123    42    39    1
   124    65    64    1
   125    51    52   ar
   126    51    50    1
   127    24    23   ar
   128    37    34    1
   129    23    25   ar
   130    64    61    1
   131    34    35    1
   132    39    40    1
   133    39    38    1
   134    41    40    2
   135    47    50    1
   136    47    46    1
   137    47    48    1
   138    49    48    2
   139    61    62    1
   140    61    60    1
   141    35    36    2
   142    63    62    2
