@<TRIPOS>MOLECULE
tmp/1eleA00.pdb
 147 143 0 0 0
SMALL
GASTEIGER

@<TRIPOS>ATOM
      1  N         48.0650   17.6050   41.5660 N.3    45  HIS45      -0.1241
      2  CA        47.5390   17.1600   40.2940 C.3    45  HIS45       0.1621
      3  C         48.2780   17.7850   39.1110 C.2    45  HIS45       0.2264
      4  O         48.1170   17.2840   38.0130 O.2    45  HIS45      -0.2867
      5  CB        46.0140   17.4460   40.1770 C.3    45  HIS45       0.0745
      6  CG        45.4890   18.8430   39.8670 C.ar   45  HIS45       0.0817
      7  ND1       44.9310   19.6720   40.7220 N.ar   45  HIS45      -0.2268
      8  CD2       45.4910   19.4790   38.6370 C.ar   45  HIS45       0.1154
      9  CE1       44.5870   20.7670   40.0970 C.ar   45  HIS45       0.1986
     10  NE2       44.9340   20.6430   38.8420 N.ar   45  HIS45      -0.2212
     11  N         43.0730    9.8270   41.0670 N.3    86  ASP86      -0.1225
     12  CA        41.6920    9.4200   40.7740 C.3    86  ASP86       0.1805
     13  C         40.6020   10.0580   41.6420 C.2    86  ASP86       0.2598
     14  O         39.4030    9.7750   41.4280 O.2    86  ASP86      -0.2718
     15  CB        41.4670    7.8990   40.9300 C.3    86  ASP86       0.1424
     16  CG        42.4550    6.9100   40.3090 C.2    86  ASP86       0.3668
     17  OD1       43.1760    7.2410   39.3550 O.co2  86  ASP86      -0.2456
     18  OD2       42.4910    5.7890   40.8190 O.co2  86  ASP86      -0.2456
     19  N         41.0130   10.8910   42.6330 N.am   87  ASP87      -0.1960
     20  CA        40.0860   11.4860   43.5840 C.3    87  ASP87       0.1840
     21  C         40.5970   12.8060   44.1720 C.2    87  ASP87       0.2622
     22  O         41.0510   12.8200   45.3120 O.2    87  ASP87      -0.2715
     23  CB        39.8140   10.4320   44.6970 C.3    87  ASP87       0.1450
     24  CG        38.6480   10.6250   45.6790 C.2    87  ASP87       0.3671
     25  OD1       37.9540   11.6480   45.6560 O.co2  87  ASP87      -0.2456
     26  OD2       38.4170    9.7210   46.4870 O.co2  87  ASP87      -0.2456
     27  N         40.5560   13.9230   43.4310 N.am   88  VAL88      -0.1963
     28  CA        40.8200   15.2510   44.0040 C.3    88  VAL88       0.1727
     29  C         39.9290   15.5370   45.1950 C.2    88  VAL88       0.2616
     30  O         40.3670   16.2210   46.1160 O.2    88  VAL88      -0.2715
     31  CB        40.5030   16.5300   43.1610 C.3    88  VAL88       0.0290
     32  CG1       41.7990   17.1040   42.6750 C.3    88  VAL88       0.0023
     33  CG2       39.4970   16.2350   42.0550 C.3    88  VAL88       0.0023
     34  N         38.6810   15.0760   45.1880 N.am   89  ALA89      -0.1977
     35  CA        37.7620   15.3980   46.2770 C.3    89  ALA89       0.1597
     36  C         38.1240   14.7690   47.6040 C.2    89  ALA89       0.2287
     37  O         37.5160   15.0900   48.6260 O.2    89  ALA89      -0.2864
     38  CB        36.3310   14.9640   45.9830 C.3    89  ALA89       0.0319
     39  N         28.7520   22.7190   47.2190 N.3   164  TRP164     -0.1241
     40  CA        29.5140   21.5740   46.8430 C.3   164  TRP164      0.1605
     41  C         29.1310   20.3130   47.5460 C.2   164  TRP164      0.2264
     42  O         29.6080   19.2550   47.1360 O.2   164  TRP164     -0.2867
     43  CB        30.9730   21.8720   47.0690 C.3   164  TRP164      0.0550
     44  CG        31.5780   22.6100   45.8550 C.ar  164  TRP164      0.0003
     45  CD1       31.9140   23.9500   45.8600 C.ar  164  TRP164      0.0946
     46  CD2       31.9290   22.0150   44.6640 C.ar  164  TRP164      0.0152
     47  NE1       32.4830   24.1800   44.6970 N.ar  164  TRP164     -0.2442
     48  CE2       32.5160   23.0610   43.9570 C.ar  164  TRP164      0.0810
     49  CE3       31.8320   20.7570   44.1320 C.ar  164  TRP164      0.0012
     50  CZ2       33.0190   22.8530   42.6960 C.ar  164  TRP164      0.0191
     51  CZ3       32.3360   20.5520   42.8660 C.ar  164  TRP164      0.0001
     52  CH2       32.9300   21.5870   42.1540 C.ar  164  TRP164      0.0015
     53  N         31.4860   16.9510   48.5440 N.3   167  THR167     -0.1218
     54  CA        32.6850   16.9550   47.7490 C.3   167  THR167      0.1862
     55  C         33.7750   17.7990   48.3870 C.2   167  THR167      0.2287
     56  O         34.9500   17.4770   48.2650 O.2   167  THR167     -0.2866
     57  CB        32.2070   17.4070   46.3530 C.3   167  THR167      0.1770
     58  OG1       31.4370   16.2950   45.8990 O.3   167  THR167     -0.2211
     59  CG2       33.2790   17.6760   45.3300 C.3   167  THR167      0.0375
     60  N         38.4960   31.0180   39.3920 N.3   183  GLY183     -0.1210
     61  CA        39.6960   30.4500   38.8310 C.3   183  GLY183      0.1956
     62  C         39.2710   29.5080   37.7140 C.2   183  GLY183      0.2612
     63  O         38.1010   29.1910   37.6130 O.2   183  GLY183     -0.2717
     64  N         40.1000   28.9940   36.8410 N.am  184  CYS184     -0.1956
     65  CA        39.6400   28.0770   35.7590 C.3   184  CYS184      0.1843
     66  C         40.9040   27.3020   35.3830 C.2   184  CYS184      0.2625
     67  O         41.9880   27.5880   35.9120 O.2   184  CYS184     -0.2714
     68  CB        39.0990   28.9660   34.6020 C.3   184  CYS184      0.0997
     69  SG        38.0970   28.2210   33.3060 S.3   184  CYS184     -0.0797
     70  N         40.8390   26.3410   34.4750 N.am  185  GLN185     -0.1977
     71  CA        41.9960   25.5590   34.0910 C.3   185  GLN185      0.1601
     72  C         43.2760   26.3360   33.7710 C.2   185  GLN185      0.2287
     73  O         43.2400   27.3760   33.1300 O.2   185  GLN185     -0.2864
     74  CB        41.5680   24.6790   32.9150 C.3   185  GLN185      0.0394
     75  CG        40.6590   23.5080   33.2690 C.3   185  GLN185      0.0908
     76  CD        39.1750   23.7430   33.3920 C.2   185  GLN185      0.2608
     77  OE1       38.4820   22.9690   34.0560 O.2   185  GLN185     -0.2717
     78  NE2       38.6110   24.7640   32.7610 N.am  185  GLN185     -0.0878
     79  N         44.9770   27.8250   36.1540 N.3   187  ASP187     -0.1225
     80  CA        45.1430   28.5260   37.4200 C.3   187  ASP187      0.1805
     81  C         45.4800   27.5820   38.5770 C.2   187  ASP187      0.2598
     82  O         46.0410   28.0380   39.5520 O.2   187  ASP187     -0.2718
     83  CB        43.8870   29.2850   37.8190 C.3   187  ASP187      0.1424
     84  CG        43.5400   30.4540   36.9170 C.2   187  ASP187      0.3668
     85  OD1       44.4610   31.0690   36.4060 O.co2 187  ASP187     -0.2456
     86  OD2       42.3640   30.7810   36.7670 O.co2 187  ASP187     -0.2456
     87  N         45.1990   26.2700   38.4450 N.am  188  SER188     -0.1952
     88  CA        45.5540   25.1880   39.3570 C.3   188  SER188      0.1924
     89  C         46.9070   25.2210   39.9850 C.2   188  SER188      0.2314
     90  O         47.8740   25.3580   39.2710 O.2   188  SER188     -0.2863
     91  CB        45.5400   23.8560   38.7060 C.3   188  SER188      0.2116
     92  OG        44.2480   23.5620   38.2670 O.3   188  SER188     -0.2180
     93  N         45.0310   26.5270   44.3940 N.3   206  THR206     -0.1203
     94  CA        43.8750   26.2310   43.5210 C.3   206  THR206      0.1994
     95  C         43.8860   24.7490   43.1270 C.2   206  THR206      0.2619
     96  O         44.9160   24.1810   42.7270 O.2   206  THR206     -0.2717
     97  CB        43.9210   27.0780   42.2490 C.3   206  THR206      0.1784
     98  OG1       44.1730   28.4570   42.6120 O.3   206  THR206     -0.2211
     99  CG2       42.6130   27.0190   41.5100 C.3   206  THR206      0.0376
    100  N         42.7000   24.1710   43.3260 N.am  207  SER207     -0.1937
    101  CA        42.5420   22.7570   43.1290 C.3   207  SER207      0.2055
    102  C         41.4490   22.3910   42.1670 C.2   207  SER207      0.2643
    103  O         41.7630   21.6110   41.2700 O.2   207  SER207     -0.2714
    104  CB        42.2690   22.0270   44.4830 C.3   207  SER207      0.2130
    105  OG        42.0990   20.6070   44.3510 O.3   207  SER207     -0.2179
    106  N         40.2040   22.8440   42.2780 N.am  208  PHE208     -0.1959
    107  CA        39.2530   22.4350   41.2840 C.3   208  PHE208      0.1771
    108  C         38.0560   23.3350   41.2230 C.2   208  PHE208      0.2619
    109  O         37.7780   24.1550   42.1000 O.2   208  PHE208     -0.2715
    110  CB        38.7730   20.9700   41.5040 C.3   208  PHE208      0.0574
    111  CG        38.0030   20.6170   42.7740 C.ar  208  PHE208     -0.0200
    112  CD1       38.6780   20.2690   43.9410 C.ar  208  PHE208     -0.0042
    113  CD2       36.6180   20.6530   42.7740 C.ar  208  PHE208     -0.0042
    114  CE1       37.9650   19.9480   45.0720 C.ar  208  PHE208     -0.0003
    115  CE2       35.9150   20.3290   43.9240 C.ar  208  PHE208     -0.0003
    116  CZ        36.5870   19.9810   45.0730 C.ar  208  PHE208     -0.0000
    117  N         37.4310   23.1760   40.0660 N.am  209  VAL209     -0.1963
    118  CA        36.2070   23.8790   39.7280 C.3   209  VAL209      0.1727
    119  C         35.1950   22.8150   39.3650 C.2   209  VAL209      0.2617
    120  O         35.4870   21.6170   39.3110 O.2   209  VAL209     -0.2715
    121  CB        36.3610   24.8640   38.5000 C.3   209  VAL209      0.0290
    122  CG1       37.0470   26.0980   38.9740 C.3   209  VAL209      0.0023
    123  CG2       37.2060   24.3200   37.3640 C.3   209  VAL209      0.0023
    124  N         33.9790   23.2590   39.1010 N.am  210  SER210     -0.1936
    125  CA        32.9300   22.3650   38.6990 C.3   210  SER210      0.2055
    126  C         33.2120   21.8730   37.2770 C.2   210  SER210      0.2642
    127  O         33.9970   22.4140   36.4830 O.2   210  SER210     -0.2714
    128  CB        31.6520   23.1230   38.8100 C.3   210  SER210      0.2130
    129  OG        30.6750   22.5540   37.9790 O.3   210  SER210     -0.2179
    130  N         32.5710   20.7310   37.0290 N.am  211  ARG211     -0.1977
    131  CA        32.6140   20.0260   35.7640 C.3   211  ARG211      0.1597
    132  C         31.7320   20.7910   34.7970 C.2   211  ARG211      0.2287
    133  O         32.0170   20.7600   33.6190 O.2   211  ARG211     -0.2864
    134  CB        32.0870   18.5980   35.9340 C.3   211  ARG211      0.0334
    135  CG        32.9630   17.6460   36.7620 C.3   211  ARG211      0.0492
    136  CD        32.1330   16.4630   37.2570 C.3   211  ARG211      0.2205
    137  NE        32.9600   15.4140   37.8270 N.pl3 211  ARG211     -0.0865
    138  CZ        32.4670   14.4350   38.5820 C.cat 211  ARG211      0.5346
    139  NH1       31.1740   14.3440   38.8630 N.pl3 211  ARG211      0.1354
    140  NH2       33.3050   13.5290   39.0590 N.pl3 211  ARG211      0.1354
    141  N         35.2780   28.2470   43.6950 N.3   221  THR221     -0.1218
    142  CA        36.5090   27.5420   43.3620 C.3   221  THR221      0.1862
    143  C         36.9320   26.8480   44.6540 C.2   221  THR221      0.2287
    144  O         36.6370   27.3930   45.7300 O.2   221  THR221     -0.2866
    145  CB        37.6060   28.5470   42.9130 C.3   221  THR221      0.1770
    146  OG1       37.0420   29.2220   41.8090 O.3   221  THR221     -0.2211
    147  CG2       38.9420   27.9250   42.5310 C.3   221  THR221      0.0375
@<TRIPOS>BOND
     1    78    76   am
     2    74    75    1
     3    74    71    1
     4    73    72    2
     5    75    76    1
     6    69    68    1
     7    76    77    2
     8   133   132    2
     9    72    71    1
    10    71    70    1
    11    70    66   am
    12    68    65    1
    13   132   131    1
    14    66    65    1
    15    66    67    2
    16    65    64    1
    17   131   134    1
    18   131   130    1
    19   134   135    1
    20    79    80    1
    21    85    84   ar
    22   127   126    2
    23   135   136    1
    24    86    84   ar
    25    64    62   am
    26    84    83    1
    27   130   126   am
    28   136   137    1
    29   126   125    1
    30   123   121    1
    31    80    83    1
    32    80    81    1
    33    63    62    2
    34    62    61    1
    35   137   138    2
    36   129   128    1
    37     4     3    2
    38    92    91    1
    39    87    81   am
    40    87    88    1
    41   121   122    1
    42   121   118    1
    43    81    82    2
    44   138   139    1
    45   138   140    1
    46     8    10   ar
    47     8     6   ar
    48   125   128    1
    49   125   124    1
    50    91    88    1
    51    61    60    1
    52    10     9   ar
    53   124   119   am
    54     3     2    1
    55    90    89    2
    56   120   119    2
    57    17    16   ar
    58    88    89    1
    59   119   118    1
    60   118   117    1
    61     6     5    1
    62     6     7   ar
    63   117   108   am
    64     9     7   ar
    65     5     2    1
    66     2     1    1
    67    16    18   ar
    68    16    15    1
    69    12    15    1
    70    12    11    1
    71    12    13    1
    72   108   107    1
    73   108   109    2
    74   103   102    2
    75   107   110    1
    76   107   106    1
    77    14    13    2
    78   110   111    1
    79    99    97    1
    80    13    19   am
    81   146   145    1
    82    33    31    1
    83    52    50   ar
    84    52    51   ar
    85   102   106   am
    86   102   101    1
    87    97    98    1
    88    97    94    1
    89   147   145    1
    90    19    20    1
    91    32    31    1
    92    50    48   ar
    93    96    95    2
    94   111   113   ar
    95   111   112   ar
    96   113   115   ar
    97    51    49   ar
    98   145   142    1
    99    95   100   am
   100    95    94    1
   101   101   100    1
   102   101   104    1
   103    31    28    1
   104   142   141    1
   105   142   143    1
   106    27    28    1
   107    27    21   am
   108    94    93    1
   109    20    21    1
   110    20    23    1
   111   115   116   ar
   112   112   114   ar
   113    48    46   ar
   114    48    47   ar
   115    28    29    1
   116    49    46   ar
   117    21    22    2
   118   105   104    1
   119   143   144    2
   120    46    44   ar
   121    47    45   ar
   122    23    24    1
   123   114   116   ar
   124    34    29   am
   125    34    35    1
   126    29    30    2
   127    59    57    1
   128    25    24   ar
   129    24    26   ar
   130    44    45   ar
   131    44    43    1
   132    58    57    1
   133    38    35    1
   134    35    36    1
   135    57    54    1
   136    40    43    1
   137    40    39    1
   138    40    41    1
   139    42    41    2
   140    36    37    2
   141    54    55    1
   142    54    53    1
   143    56    55    2
