@<TRIPOS>MOLECULE
tmp/1elfA00.pdb
 107 104 0 0 0
SMALL
GASTEIGER

@<TRIPOS>ATOM
      1  N         54.7700   23.3710   31.3030 N.3    20  TYR20      -0.1241
      2  CA        55.4390   22.1350   30.9150 C.3    20  TYR20       0.1605
      3  C         55.9930   22.2180   29.4870 C.2    20  TYR20       0.2264
      4  O         55.5850   23.0070   28.6840 O.2    20  TYR20      -0.2867
      5  CB        54.4910   20.9330   31.0110 C.3    20  TYR20       0.0534
      6  CG        53.3070   21.0010   30.0520 C.ar   20  TYR20      -0.0201
      7  CD1       52.2000   21.7710   30.3670 C.ar   20  TYR20      -0.0009
      8  CD2       53.3650   20.2920   28.8660 C.ar   20  TYR20      -0.0009
      9  CE1       51.1440   21.8440   29.4870 C.ar   20  TYR20       0.0417
     10  CE2       52.3130   20.3570   27.9860 C.ar   20  TYR20       0.0417
     11  CZ        51.2100   21.1250   28.3060 C.ar   20  TYR20       0.1957
     12  OH        50.1460   21.1540   27.4290 O.3    20  TYR20      -0.2866
     13  N         51.8760   27.2070   29.6580 N.3    28  HIS28      -0.1226
     14  CA        51.2700   27.3670   30.9780 C.3    28  HIS28       0.1752
     15  C         50.1980   26.3090   31.2740 C.2    28  HIS28       0.2597
     16  O         49.3140   26.0630   30.4890 O.2    28  HIS28      -0.2718
     17  CB        50.6610   28.7860   31.0610 C.3    28  HIS28       0.0759
     18  CG        49.9700   29.0570   32.3720 C.ar   28  HIS28       0.0818
     19  ND1       50.5440   29.5300   33.4690 N.ar   28  HIS28      -0.2268
     20  CD2       48.6610   28.7780   32.6440 C.ar   28  HIS28       0.1154
     21  CE1       49.6350   29.5430   34.4030 C.ar   28  HIS28       0.1986
     22  NE2       48.5100   29.0920   33.9080 N.ar   28  HIS28      -0.2212
     23  N         50.3460   25.7300   32.4850 N.am   29  THR29      -0.1939
     24  CA        49.3150   24.7690   32.8500 C.3    29  THR29       0.2028
     25  C         48.6690   25.0410   34.2220 C.2    29  THR29       0.2642
     26  O         47.5260   24.7480   34.4240 O.2    29  THR29      -0.2714
     27  CB        49.9950   23.3660   32.7530 C.3    29  THR29       0.1808
     28  OG1       48.9410   22.4190   32.8400 O.3    29  THR29      -0.2208
     29  CG2       51.0290   23.0840   33.8460 C.3    29  THR29       0.0379
     30  N         49.4260   25.6520   35.1460 N.am   30  CYS30      -0.1967
     31  CA        48.8750   25.8900   36.4700 C.3    30  CYS30       0.1712
     32  C         49.5670   27.1080   37.0870 C.2    30  CYS30       0.2296
     33  O         50.5290   27.6270   36.5850 O.2    30  CYS30      -0.2864
     34  CB        49.1190   24.6680   37.3930 C.3    30  CYS30       0.0983
     35  SG        47.8580   23.3800   37.1710 S.3    30  CYS30      -0.0798
     36  N         47.1150   17.8290   41.5480 N.3    45  HIS45      -0.1226
     37  CA        46.6670   17.4100   40.2230 C.3    45  HIS45       0.1752
     38  C         47.3810   18.0980   39.0420 C.2    45  HIS45       0.2596
     39  O         47.2940   17.6330   37.9350 O.2    45  HIS45      -0.2718
     40  CB        45.1410   17.6220   40.0900 C.3    45  HIS45       0.0759
     41  CG        44.6210   19.0410   39.8260 C.ar   45  HIS45       0.0818
     42  ND1       44.1170   19.8770   40.7250 N.ar   45  HIS45      -0.2268
     43  CD2       44.5750   19.6890   38.6020 C.ar   45  HIS45       0.1154
     44  CE1       43.7780   20.9900   40.1270 C.ar   45  HIS45       0.1986
     45  NE2       44.0530   20.8690   38.8510 N.ar   45  HIS45      -0.2212
     46  N         48.0730   19.2140   39.3400 N.am   46  CYS46      -0.1970
     47  CA        48.8200   19.8630   38.2720 C.3    46  CYS46       0.1712
     48  C         50.0510   19.0540   37.9050 C.2    46  CYS46       0.2296
     49  O         50.5520   19.2230   36.8300 O.2    46  CYS46      -0.2864
     50  CB        49.3130   21.2640   38.6810 C.3    46  CYS46       0.0983
     51  SG        47.9700   22.4460   38.9430 S.3    46  CYS46      -0.0798
     52  N         41.7240   30.2910   32.0590 N.3   134  LEU134     -0.1245
     53  CA        40.6610   30.6970   31.1450 C.3   134  LEU134      0.1561
     54  C         39.7770   31.8220   31.6730 C.2   134  LEU134      0.2260
     55  O         39.4050   31.8600   32.8230 O.2   134  LEU134     -0.2867
     56  CB        39.7260   29.5360   30.8240 C.3   134  LEU134      0.0270
     57  CG        40.2270   28.1660   30.4650 C.3   134  LEU134      0.0019
     58  CD1       39.0510   27.3540   29.9200 C.3   134  LEU134      0.0001
     59  CD2       41.3410   28.2520   29.4540 C.3   134  LEU134      0.0001
     60  N         35.4150   27.1770   28.8170 N.3   138  ASN138     -0.1225
     61  CA        35.7660   26.6950   27.4600 C.3   138  ASN138      0.1785
     62  C         36.3460   27.7720   26.5440 C.2   138  ASN138      0.2598
     63  O         36.2600   27.6670   25.3580 O.2   138  ASN138     -0.2718
     64  CB        34.5160   26.0360   26.7950 C.3   138  ASN138      0.1169
     65  CG        34.0840   24.7400   27.5160 C.2   138  ASN138      0.2627
     66  OD1       34.8860   23.9150   27.8520 O.2   138  ASN138     -0.2716
     67  ND2       32.7990   24.5380   27.7970 N.am  138  ASN138     -0.0877
     68  N         36.9410   28.8090   27.1730 N.am  139  GLY139     -0.1942
     69  CA        37.5290   29.9230   26.4700 C.3   139  GLY139      0.2014
     70  C         39.0240   29.6920   26.3060 C.2   139  GLY139      0.2639
     71  O         39.4890   28.6070   26.0970 O.2   139  GLY139     -0.2714
     72  N         39.7460   30.8050   26.4060 N.am  140  GLN140     -0.1963
     73  CA        41.1990   30.6420   26.3550 C.3   140  GLN140      0.1733
     74  C         41.9340   31.3490   27.5040 C.2   140  GLN140      0.2616
     75  O         41.3780   32.1350   28.2180 O.2   140  GLN140     -0.2715
     76  CB        41.7250   31.1620   25.0140 C.3   140  GLN140      0.0408
     77  CG        41.6820   32.6560   24.8230 C.3   140  GLN140      0.0908
     78  CD        41.9530   33.0780   23.3820 C.2   140  GLN140      0.2608
     79  OE1       41.2930   33.9420   22.9190 O.2   140  GLN140     -0.2717
     80  NE2       42.8560   32.5210   22.5850 N.am  140  GLN140     -0.0878
     81  N         43.2250   30.9970   27.6200 N.am  141  LEU141     -0.1977
     82  CA        44.0300   31.6210   28.6740 C.3   141  LEU141      0.1596
     83  C         44.1890   33.1270   28.5570 C.2   141  LEU141      0.2287
     84  O         44.1300   33.7060   27.5000 O.2   141  LEU141     -0.2864
     85  CB        45.4250   31.0340   28.6670 C.3   141  LEU141      0.0297
     86  CG        45.5690   29.5370   28.9600 C.3   141  LEU141      0.0022
     87  CD1       47.0310   29.1680   28.6910 C.3   141  LEU141      0.0001
     88  CD2       45.1610   29.1930   30.4160 C.3   141  LEU141      0.0001
     89  N         39.9070   26.7090   34.4410 N.3   185  GLN185     -0.1231
     90  CA        41.1000   25.9030   34.1200 C.3   185  GLN185      0.1698
     91  C         42.3850   26.6570   33.8780 C.2   185  GLN185      0.2592
     92  O         42.3160   27.6570   33.2340 O.2   185  GLN185     -0.2718
     93  CB        40.7830   25.0530   32.9000 C.3   185  GLN185      0.0381
     94  CG        39.9330   23.7980   33.2060 C.3   185  GLN185      0.0905
     95  CD        38.4500   24.0430   33.4340 C.2   185  GLN185      0.2608
     96  OE1       37.9010   25.0190   33.0170 O.2   185  GLN185     -0.2717
     97  NE2       37.7570   23.1310   34.0920 N.am  185  GLN185     -0.0878
     98  N         43.5520   26.2650   34.3780 N.am  186  GLY186     -0.1957
     99  CA        44.8040   27.0300   34.2520 C.3   186  GLY186      0.1869
    100  C         45.0920   27.9310   35.4520 C.2   186  GLY186      0.2309
    101  O         46.1570   28.4610   35.5390 O.2   186  GLY186     -0.2863
    102  N         44.3260   26.5690   38.4460 N.3   188  SER188     -0.1217
    103  CA        44.6010   25.5130   39.3940 C.3   188  SER188      0.1889
    104  C         45.9870   25.5970   40.0090 C.2   188  SER188      0.2288
    105  O         46.9010   25.9090   39.3300 O.2   188  SER188     -0.2866
    106  CB        44.4610   24.1420   38.6790 C.3   188  SER188      0.2089
    107  OG        43.5370   23.9330   37.5740 O.3   188  SER188     -0.2183
@<TRIPOS>BOND
     1    80    78   am
     2    79    78    2
     3    78    77    1
     4    77    76    1
     5    76    73    1
     6    63    62    2
     7    71    70    2
     8    70    72   am
     9    70    69    1
    10    73    72    1
    11    73    74    1
    12    69    68    1
    13    62    68   am
    14    62    61    1
    15    64    61    1
    16    64    65    1
    17    12    11    1
    18    61    60    1
    19    84    83    2
    20    74    81   am
    21    74    75    2
    22    65    67   am
    23    65    66    2
    24    81    82    1
    25    10    11   ar
    26    10     8   ar
    27    11     9   ar
    28    83    82    1
    29    85    82    1
    30    85    86    1
    31     4     3    2
    32    87    86    1
    33     8     6   ar
    34    86    88    1
    35    59    57    1
    36     9     7   ar
    37     3     2    1
    38    13    14    1
    39    58    57    1
    40     6     7   ar
    41     6     5    1
    42    57    56    1
    43    16    15    2
    44    56    53    1
    45     2     5    1
    46     2     1    1
    47    14    17    1
    48    14    15    1
    49    17    18    1
    50    53    54    1
    51    53    52    1
    52    15    23   am
    53    54    55    2
    54    18    20   ar
    55    18    19   ar
    56    23    24    1
    57    20    22   ar
    58    27    28    1
    59    27    24    1
    60    27    29    1
    61    24    25    1
    62    93    94    1
    63    93    90    1
    64    96    95    2
    65    94    95    1
    66    92    91    2
    67    95    97   am
    68    19    21   ar
    69    91    90    1
    70    91    98   am
    71    22    21   ar
    72    90    89    1
    73    25    26    2
    74    25    30   am
    75    99    98    1
    76    99   100    1
    77    30    31    1
    78   100   101    2
    79    31    32    1
    80    31    34    1
    81    33    32    2
    82    49    48    2
    83    35    34    1
    84    35    51    1
    85   107   106    1
    86    48    47    1
    87    39    38    2
    88    47    50    1
    89    47    46    1
    90   102   103    1
    91    43    45   ar
    92    43    41   ar
    93   106   103    1
    94    50    51    1
    95    45    44   ar
    96    38    46   am
    97    38    37    1
    98   105   104    2
    99   103   104    1
   100    41    40    1
   101    41    42   ar
   102    40    37    1
   103    44    42   ar
   104    37    36    1
