@<TRIPOS>MOLECULE
tmp/1elgA00.pdb
 99 96 0 0 0
SMALL
GASTEIGER

@<TRIPOS>ATOM
      1  N         54.7890   23.3700   31.1990 N.3    20  TYR20      -0.1241
      2  CA        55.4170   22.1350   30.7890 C.3    20  TYR20       0.1605
      3  C         55.9400   22.2750   29.3570 C.2    20  TYR20       0.2264
      4  O         55.4730   23.0470   28.5560 O.2    20  TYR20      -0.2867
      5  CB        54.4340   20.9730   30.8860 C.3    20  TYR20       0.0534
      6  CG        53.2570   21.0690   29.9310 C.ar   20  TYR20      -0.0201
      7  CD1       52.1700   21.8810   30.2220 C.ar   20  TYR20      -0.0009
      8  CD2       53.3100   20.3340   28.7570 C.ar   20  TYR20      -0.0009
      9  CE1       51.1250   21.9610   29.3330 C.ar   20  TYR20       0.0417
     10  CE2       52.2670   20.4080   27.8690 C.ar   20  TYR20       0.0417
     11  CZ        51.1870   21.2140   28.1630 C.ar   20  TYR20       0.1957
     12  OH        50.1430   21.2310   27.2600 O.3    20  TYR20      -0.2866
     13  N         51.8130   27.2040   29.5910 N.3    28  HIS28      -0.1226
     14  CA        51.2480   27.3870   30.9200 C.3    28  HIS28       0.1752
     15  C         50.1790   26.3020   31.1640 C.2    28  HIS28       0.2597
     16  O         49.3250   26.0630   30.3480 O.2    28  HIS28      -0.2718
     17  CB        50.6260   28.7970   31.0210 C.3    28  HIS28       0.0759
     18  CG        49.8820   29.0350   32.3290 C.ar   28  HIS28       0.0818
     19  ND1       50.3890   29.5220   33.4500 N.ar   28  HIS28      -0.2268
     20  CD2       48.5650   28.7090   32.5690 C.ar   28  HIS28       0.1154
     21  CE1       49.4550   29.5110   34.3510 C.ar   28  HIS28       0.1986
     22  NE2       48.3640   29.0270   33.8260 N.ar   28  HIS28      -0.2212
     23  N         50.2480   25.6390   32.3330 N.am   29  THR29      -0.1939
     24  CA        49.2090   24.6940   32.7120 C.3    29  THR29       0.2028
     25  C         48.5620   25.0180   34.0690 C.2    29  THR29       0.2642
     26  O         47.4050   24.7900   34.2560 O.2    29  THR29      -0.2714
     27  CB        49.8420   23.2720   32.6790 C.3    29  THR29       0.1808
     28  OG1       48.7560   22.3790   32.8580 O.3    29  THR29      -0.2208
     29  CG2       50.9320   23.0240   33.7390 C.3    29  THR29       0.0379
     30  N         49.2970   25.6020   35.0210 N.am   30  CYS30      -0.1967
     31  CA        48.7960   25.8790   36.3570 C.3    30  CYS30       0.1712
     32  C         49.4610   27.0910   36.9920 C.2    30  CYS30       0.2296
     33  O         50.4340   27.6060   36.5040 O.2    30  CYS30      -0.2864
     34  CB        49.0370   24.6430   37.2340 C.3    30  CYS30       0.0983
     35  SG        47.7860   23.3610   36.9840 S.3    30  CYS30      -0.0798
     36  N         47.0870   17.8680   41.4550 N.3    45  HIS45      -0.1226
     37  CA        46.5630   17.4330   40.1540 C.3    45  HIS45       0.1752
     38  C         47.2690   18.0930   38.9630 C.2    45  HIS45       0.2596
     39  O         47.1550   17.6210   37.8620 O.2    45  HIS45      -0.2718
     40  CB        45.0370   17.6810   40.0400 C.3    45  HIS45       0.0759
     41  CG        44.5390   19.0950   39.7760 C.ar   45  HIS45       0.0818
     42  ND1       44.0500   19.9460   40.6760 N.ar   45  HIS45      -0.2268
     43  CD2       44.4430   19.7090   38.5310 C.ar   45  HIS45       0.1154
     44  CE1       43.6540   21.0190   40.0420 C.ar   45  HIS45       0.1986
     45  NE2       43.8860   20.8770   38.7600 N.ar   45  HIS45      -0.2212
     46  N         47.9800   19.2080   39.1990 N.am   46  CYS46      -0.1970
     47  CA        48.7310   19.8880   38.1570 C.3    46  CYS46       0.1712
     48  C         49.9610   19.0860   37.7440 C.2    46  CYS46       0.2296
     49  O         50.4550   19.2680   36.6670 O.2    46  CYS46      -0.2864
     50  CB        49.2010   21.2630   38.6300 C.3    46  CYS46       0.0983
     51  SG        47.8430   22.4390   38.7770 S.3    46  CYS46      -0.0798
     52  N         41.6200   30.2180   31.9450 N.3   134  LEU134     -0.1245
     53  CA        40.5500   30.5920   31.0180 C.3   134  LEU134      0.1561
     54  C         39.6910   31.7170   31.5790 C.2   134  LEU134      0.2260
     55  O         39.3350   31.7620   32.7380 O.2   134  LEU134     -0.2867
     56  CB        39.6140   29.4430   30.7210 C.3   134  LEU134      0.0270
     57  CG        40.1550   28.1010   30.3490 C.3   134  LEU134      0.0019
     58  CD1       38.9840   27.2570   29.8570 C.3   134  LEU134      0.0001
     59  CD2       41.2710   28.2330   29.3400 C.3   134  LEU134      0.0001
     60  N         36.8230   28.7460   27.1510 N.3   139  GLY139     -0.1210
     61  CA        37.4180   29.8600   26.4480 C.3   139  GLY139      0.1956
     62  C         38.9130   29.6220   26.2410 C.2   139  GLY139      0.2612
     63  O         39.3850   28.5460   25.9890 O.2   139  GLY139     -0.2717
     64  N         39.6760   30.7080   26.3630 N.am  140  GLN140     -0.1965
     65  CA        41.1190   30.6130   26.2660 C.3   140  GLN140      0.1733
     66  C         41.8300   31.3100   27.4340 C.2   140  GLN140      0.2616
     67  O         41.2580   32.0910   28.1540 O.2   140  GLN140     -0.2715
     68  CB        41.5690   31.2090   24.9450 C.3   140  GLN140      0.0408
     69  CG        41.3800   32.6910   24.8030 C.3   140  GLN140      0.0908
     70  CD        41.5400   33.1090   23.3500 C.2   140  GLN140      0.2608
     71  OE1       40.7040   33.7800   22.8410 O.2   140  GLN140     -0.2717
     72  NE2       42.5660   32.7210   22.6060 N.am  140  GLN140     -0.0878
     73  N         43.1170   30.9610   27.5910 N.am  141  LEU141     -0.1977
     74  CA        43.9440   31.5340   28.6570 C.3   141  LEU141      0.1596
     75  C         44.0750   33.0380   28.5250 C.2   141  LEU141      0.2287
     76  O         43.9530   33.5980   27.4600 O.2   141  LEU141     -0.2864
     77  CB        45.3500   30.9310   28.6290 C.3   141  LEU141      0.0297
     78  CG        45.4880   29.4240   28.9410 C.3   141  LEU141      0.0022
     79  CD1       46.9550   29.0360   28.7010 C.3   141  LEU141      0.0001
     80  CD2       45.0620   29.0920   30.3930 C.3   141  LEU141      0.0001
     81  N         39.8700   26.6460   34.3920 N.3   185  GLN185     -0.1231
     82  CA        41.0370   25.8230   34.0580 C.3   185  GLN185      0.1698
     83  C         42.2740   26.6550   33.7750 C.2   185  GLN185      0.2592
     84  O         42.1830   27.6910   33.1830 O.2   185  GLN185     -0.2718
     85  CB        40.7470   24.9430   32.8410 C.3   185  GLN185      0.0381
     86  CG        39.8140   23.7550   33.1710 C.3   185  GLN185      0.0905
     87  CD        38.3370   24.0930   33.3350 C.2   185  GLN185      0.2608
     88  OE1       37.8630   25.1270   32.9520 O.2   185  GLN185     -0.2717
     89  NE2       37.5760   23.1800   33.9190 N.am  185  GLN185     -0.0878
     90  N         43.4210   26.2280   34.3030 N.am  186  GLY186     -0.1957
     91  CA        44.6720   26.9700   34.1910 C.3   186  GLY186      0.1869
     92  C         44.9770   27.8630   35.3870 C.2   186  GLY186      0.2309
     93  O         46.0440   28.3890   35.4820 O.2   186  GLY186     -0.2863
     94  N         44.2280   26.5580   38.4290 N.3   188  SER188     -0.1217
     95  CA        44.5000   25.4750   39.3680 C.3   188  SER188      0.1889
     96  C         45.9210   25.5560   39.9100 C.2   188  SER188      0.2288
     97  O         46.8310   25.8620   39.1910 O.2   188  SER188     -0.2866
     98  CB        44.3470   24.0930   38.6970 C.3   188  SER188      0.2089
     99  OG        43.1720   23.9000   37.8970 O.3   188  SER188     -0.2183
@<TRIPOS>BOND
     1    72    70   am
     2    71    70    2
     3    70    69    1
     4    69    68    1
     5    68    65    1
     6    63    62    2
     7    62    64   am
     8    62    61    1
     9    65    64    1
    10    65    66    1
    11    61    60    1
    12    12    11    1
    13    66    73   am
    14    66    67    2
    15    76    75    2
    16    73    74    1
    17    10    11   ar
    18    10     8   ar
    19    11     9   ar
    20    75    74    1
    21     4     3    2
    22    77    74    1
    23    77    78    1
    24    79    78    1
    25     8     6   ar
    26    78    80    1
    27     9     7   ar
    28    59    57    1
    29     3     2    1
    30    13    14    1
    31    58    57    1
    32     6     7   ar
    33     6     5    1
    34    16    15    2
    35    57    56    1
    36    56    53    1
    37     2     5    1
    38     2     1    1
    39    14    17    1
    40    14    15    1
    41    53    54    1
    42    53    52    1
    43    17    18    1
    44    15    23   am
    45    54    55    2
    46    18    20   ar
    47    18    19   ar
    48    23    24    1
    49    20    22   ar
    50    27    24    1
    51    27    28    1
    52    27    29    1
    53    24    25    1
    54    85    86    1
    55    85    82    1
    56    88    87    2
    57    86    87    1
    58    84    83    2
    59    87    89   am
    60    19    21   ar
    61    83    82    1
    62    83    90   am
    63    22    21   ar
    64    82    81    1
    65    25    26    2
    66    25    30   am
    67    91    90    1
    68    91    92    1
    69    30    31    1
    70    92    93    2
    71    31    32    1
    72    31    34    1
    73    33    32    2
    74    49    48    2
    75    35    34    1
    76    35    51    1
    77    48    47    1
    78    39    38    2
    79    99    98    1
    80    47    50    1
    81    47    46    1
    82    94    95    1
    83    43    45   ar
    84    43    41   ar
    85    50    51    1
    86    98    95    1
    87    45    44   ar
    88    38    46   am
    89    38    37    1
    90    97    96    2
    91    95    96    1
    92    41    40    1
    93    41    42   ar
    94    40    37    1
    95    44    42   ar
    96    37    36    1
