@<TRIPOS>MOLECULE
tmp/1eljA00.pdb
 200 197 0 0 0
SMALL
GASTEIGER

@<TRIPOS>ATOM
      1  N         42.5450   25.7690   16.2890 N.3    13  ALA13      -0.1231
      2  CA        43.0700   25.3240   14.9980 C.3    13  ALA13       0.1694
      3  C         42.0800   25.6060   13.8780 C.2    13  ALA13       0.2592
      4  O         42.0500   24.8830   12.8770 O.2    13  ALA13      -0.2718
      5  CB        43.4030   23.8430   15.0810 C.3    13  ALA13       0.0304
      6  N         41.2680   26.6430   14.0380 N.am   14  MET14      -0.1965
      7  CA        40.3420   27.0730   13.0000 C.3    14  MET14       0.1736
      8  C         41.0330   27.7860   11.8490 C.2    14  MET14       0.2616
      9  O         41.9810   28.5450   12.0920 O.2    14  MET14      -0.2715
     10  CB        39.3130   28.0470   13.6020 C.3    14  MET14       0.0427
     11  CG        38.6130   27.4580   14.8180 C.3    14  MET14       0.0599
     12  SD        37.2260   28.5010   15.3540 S.3    14  MET14      -0.1393
     13  CE        37.9700   29.4560   16.6580 C.3    14  MET14       0.0692
     14  N         40.5660   27.5630   10.6270 N.am   15  GLN15      -0.1977
     15  CA        41.1140   28.3550    9.5070 C.3    15  GLN15       0.1601
     16  C         40.4890   29.7410    9.5030 C.2    15  GLN15       0.2287
     17  O         39.4780   29.9470   10.1980 O.2    15  GLN15      -0.2864
     18  CB        40.9600   27.5770    8.1890 C.3    15  GLN15       0.0394
     19  CG        42.0560   26.5130    8.1470 C.3    15  GLN15       0.0908
     20  CD        42.0110   25.5630    6.9780 C.2    15  GLN15       0.2608
     21  OE1       41.1420   25.6260    6.1120 O.2    15  GLN15      -0.2717
     22  NE2       43.0000   24.6630    6.9760 N.am   15  GLN15      -0.0878
     23  N         36.5470   30.2680    9.1910 N.3    18  GLU18      -0.1245
     24  CA        35.7570   29.8490   10.3560 C.3    18  GLU18       0.1567
     25  C         36.0200   30.7960   11.5120 C.2    18  GLU18       0.2260
     26  O         35.1520   31.2380   12.2690 O.2    18  GLU18      -0.2867
     27  CB        36.0570   28.3970   10.7580 C.3    18  GLU18       0.0388
     28  CG        35.2710   27.9590   11.9860 C.3    18  GLU18       0.1160
     29  CD        35.6230   26.6020   12.5530 C.2    18  GLU18       0.3649
     30  OE1       36.6530   26.0270   12.1540 O.co2  18  GLU18      -0.2457
     31  OE2       34.8550   26.1160   13.4180 O.co2  18  GLU18      -0.2457
     32  N         47.0160   20.0560   19.2780 N.3    46  GLU46      -0.1245
     33  CA        47.1430   19.0800   20.3660 C.3    46  GLU46       0.1567
     34  C         48.5760   19.0140   20.8880 C.2    46  GLU46       0.2260
     35  O         48.7880   19.0190   22.1000 O.2    46  GLU46      -0.2867
     36  CB        46.6860   17.7010   19.8920 C.3    46  GLU46       0.0388
     37  CG        46.2520   16.7570   20.9950 C.3    46  GLU46       0.1160
     38  CD        46.1010   15.3110   20.5700 C.2    46  GLU46       0.3649
     39  OE1       45.7350   15.0330   19.4070 O.co2  46  GLU46      -0.2457
     40  OE2       46.3320   14.4250   21.4290 O.co2  46  GLU46      -0.2457
     41  N         38.2590   22.6150   20.8880 N.3    64  TRP64      -0.1227
     42  CA        38.2940   21.4270   20.0460 C.3    64  TRP64       0.1737
     43  C         37.0420   20.5860   20.2810 C.2    64  TRP64       0.2595
     44  O         36.2760   20.8460   21.2210 O.2    64  TRP64      -0.2718
     45  CB        39.5670   20.6020   20.3240 C.3    64  TRP64       0.0564
     46  CG        39.7980   19.6070   19.2170 C.ar   64  TRP64       0.0003
     47  CD1       39.5650   18.2660   19.3200 C.ar   64  TRP64       0.0946
     48  CD2       40.2630   19.8210   17.8800 C.ar   64  TRP64       0.0152
     49  NE1       39.8690   17.6270   18.1440 N.ar   64  TRP64      -0.2442
     50  CE2       40.2960   18.5650   17.2360 C.ar   64  TRP64       0.0810
     51  CE3       40.6540   20.9440   17.1580 C.ar   64  TRP64       0.0012
     52  CZ2       40.7080   18.4020   15.9110 C.ar   64  TRP64       0.0191
     53  CZ3       41.0640   20.7900   15.8440 C.ar   64  TRP64       0.0001
     54  CH2       41.0910   19.5280   15.2240 C.ar   64  TRP64       0.0015
     55  N         36.8160   19.5660   19.4660 N.am   65  ALA65      -0.1980
     56  CA        35.8190   18.5300   19.7540 C.3    65  ALA65       0.1597
     57  C         36.1220   17.8340   21.0790 C.2    65  ALA65       0.2287
     58  O         37.2480   17.8960   21.5860 O.2    65  ALA65      -0.2864
     59  CB        35.7650   17.5200   18.6190 C.3    65  ALA65       0.0319
     60  N         36.5710   14.8200   22.1870 N.3    67  ASP67      -0.1225
     61  CA        37.2140   13.5300   22.4780 C.3    67  ASP67       0.1805
     62  C         38.5890   13.6760   23.1170 C.2    67  ASP67       0.2597
     63  O         39.1770   12.6970   23.5830 O.2    67  ASP67      -0.2718
     64  CB        37.3490   12.6670   21.2160 C.3    67  ASP67       0.1424
     65  CG        38.1550   13.3840   20.1520 C.2    67  ASP67       0.3668
     66  OD1       37.7740   14.4940   19.7450 O.co2  67  ASP67      -0.2456
     67  OD2       39.1850   12.8310   19.7250 O.co2  67  ASP67      -0.2456
     68  N         39.1520   14.8800   23.1690 N.am   68  TRP68      -0.1976
     69  CA        40.4060   15.0350   23.9070 C.3    68  TRP68       0.1640
     70  C         40.2070   15.0700   25.4110 C.2    68  TRP68       0.2290
     71  O         41.1760   14.9670   26.1710 O.2    68  TRP68      -0.2864
     72  CB        41.0950   16.3400   23.5150 C.3    68  TRP68       0.0576
     73  CG        41.5770   16.4200   22.1090 C.ar   68  TRP68       0.0006
     74  CD1       41.4720   15.4760   21.1260 C.ar   68  TRP68       0.0946
     75  CD2       42.2570   17.5430   21.5450 C.ar   68  TRP68       0.0152
     76  NE1       42.0480   15.9470   19.9750 N.ar   68  TRP68      -0.2442
     77  CE2       42.5350   17.2140   20.2060 C.ar   68  TRP68       0.0810
     78  CE3       42.6430   18.7880   22.0590 C.ar   68  TRP68       0.0012
     79  CZ2       43.1940   18.1000   19.3530 C.ar   68  TRP68       0.0191
     80  CZ3       43.2970   19.6630   21.2150 C.ar   68  TRP68       0.0001
     81  CH2       43.5630   19.3080   19.8820 C.ar   68  TRP68       0.0015
     82  N         41.8780   12.0470   27.6620 N.3    71  LYS71      -0.1245
     83  CA        43.3440   12.0010   27.7710 C.3    71  LYS71       0.1561
     84  C         43.9170   13.3050   28.2960 C.2    71  LYS71       0.2260
     85  O         44.8870   13.2820   29.0810 O.2    71  LYS71      -0.2867
     86  CB        43.9430   11.5640   26.4400 C.3    71  LYS71       0.0271
     87  CG        43.8550   12.5310   25.2810 C.3    71  LYS71       0.0035
     88  CD        44.2520   11.8430   23.9780 C.3    71  LYS71       0.0206
     89  CE        43.9080   12.6940   22.7670 C.3    71  LYS71       0.1093
     90  NZ        43.8540   11.8460   21.5390 N.3    71  LYS71      -0.1314
     91  N         28.3480   18.2550   15.8280 N.3   115  GLU115     -0.1245
     92  CA        28.8980   18.2810   14.4910 C.3   115  GLU115      0.1567
     93  C         29.2330   16.8760   14.0090 C.2   115  GLU115      0.2260
     94  O         29.4130   15.9810   14.8270 O.2   115  GLU115     -0.2867
     95  CB        30.1920   19.1190   14.4350 C.3   115  GLU115      0.0388
     96  CG        31.3200   18.4460   15.2110 C.3   115  GLU115      0.1160
     97  CD        32.6070   19.2600   15.2670 C.2   115  GLU115      0.3649
     98  OE1       32.6410   20.4660   14.9700 O.co2 115  GLU115     -0.2457
     99  OE2       33.6550   18.6670   15.6160 O.co2 115  GLU115     -0.2457
    100  N         41.2740   11.1030    6.1190 N.3   158  ASN158     -0.1225
    101  CA        41.9780   10.7600    7.3540 C.3   158  ASN158      0.1785
    102  C         41.0620    9.8630    8.1900 C.2   158  ASN158      0.2597
    103  O         39.9630    9.6030    7.6910 O.2   158  ASN158     -0.2718
    104  CB        42.4410   11.9680    8.1390 C.3   158  ASN158      0.1169
    105  CG        41.3510   12.8050    8.7690 C.2   158  ASN158      0.2627
    106  OD1       40.1890   12.4190    8.9120 O.2   158  ASN158     -0.2716
    107  ND2       41.7570   14.0070    9.1730 N.am  158  ASN158     -0.0877
    108  N         41.5010    9.4110    9.3550 N.am  159  ALA159     -0.1966
    109  CA        40.7020    8.4800   10.1440 C.3   159  ALA159      0.1728
    110  C         39.2620    8.9750   10.3050 C.2   159  ALA159      0.2616
    111  O         38.2860    8.3080    9.9410 O.2   159  ALA159     -0.2715
    112  CB        41.3620    8.2460   11.4970 C.3   159  ALA159      0.0334
    113  N         39.0820   10.1790   10.8330 N.am  160  TYR160     -0.1960
    114  CA        37.7070   10.6590   11.0450 C.3   160  TYR160      0.1771
    115  C         36.9330   10.8620    9.7550 C.2   160  TYR160      0.2619
    116  O         35.7380   10.5270    9.6490 O.2   160  TYR160     -0.2715
    117  CB        37.8320   11.9670   11.8000 C.3   160  TYR160      0.0574
    118  CG        36.6220   12.7990   12.1210 C.ar  160  TYR160     -0.0198
    119  CD1       36.1170   13.7130   11.2120 C.ar  160  TYR160     -0.0009
    120  CD2       35.9900   12.6820   13.3610 C.ar  160  TYR160     -0.0009
    121  CE1       35.0080   14.4800   11.5300 C.ar  160  TYR160      0.0417
    122  CE2       34.8770   13.4500   13.6860 C.ar  160  TYR160      0.0417
    123  CZ        34.3970   14.3460   12.7510 C.ar  160  TYR160      0.1957
    124  OH        33.2920   15.1260   13.0330 O.3   160  TYR160     -0.2866
    125  N         37.5810   11.4370    8.7340 N.am  161  PHE161     -0.1974
    126  CA        36.8490   11.8200    7.5350 C.3   161  PHE161      0.1639
    127  C         36.2860   10.6240    6.7910 C.2   161  PHE161      0.2290
    128  O         35.2170   10.7740    6.1770 O.2   161  PHE161     -0.2864
    129  CB        37.7140   12.6500    6.5550 C.3   161  PHE161      0.0560
    130  CG        37.4840   14.1320    6.8030 C.ar  161  PHE161     -0.0200
    131  CD1       38.0900   14.7880    7.8490 C.ar  161  PHE161     -0.0042
    132  CD2       36.6360   14.8470    5.9700 C.ar  161  PHE161     -0.0042
    133  CE1       37.8450   16.1340    8.0820 C.ar  161  PHE161     -0.0003
    134  CE2       36.3810   16.1820    6.2050 C.ar  161  PHE161     -0.0003
    135  CZ        36.9820   16.8520    7.2600 C.ar  161  PHE161     -0.0000
    136  N         43.5760   17.9400    3.0860 N.3   209  TYR209     -0.1241
    137  CA        42.3530   18.6780    3.3850 C.3   209  TYR209      0.1605
    138  C         42.1900   19.8710    2.4730 C.2   209  TYR209      0.2264
    139  O         41.1540   20.0120    1.8060 O.2   209  TYR209     -0.2867
    140  CB        42.3360   19.1090    4.8610 C.3   209  TYR209      0.0534
    141  CG        41.0990   19.8890    5.2450 C.ar  209  TYR209     -0.0201
    142  CD1       39.9910   19.1800    5.7190 C.ar  209  TYR209     -0.0009
    143  CD2       40.9740   21.2700    5.1660 C.ar  209  TYR209     -0.0009
    144  CE1       38.8370   19.8450    6.0830 C.ar  209  TYR209      0.0417
    145  CE2       39.8210   21.9530    5.5200 C.ar  209  TYR209      0.0417
    146  CZ        38.7470   21.2150    5.9830 C.ar  209  TYR209      0.1957
    147  OH        37.5800   21.8490    6.3540 O.3   209  TYR209     -0.2866
    148  N         32.5060   23.4120   10.2070 N.3   229  TRP229     -0.1241
    149  CA        33.6950   24.2690   10.2560 C.3   229  TRP229      0.1605
    150  C         34.0820   24.7580    8.8680 C.2   229  TRP229      0.2264
    151  O         34.8290   25.7360    8.7770 O.2   229  TRP229     -0.2867
    152  CB        34.8890   23.5270   10.9070 C.3   229  TRP229      0.0550
    153  CG        35.1350   22.2300   10.1800 C.ar  229  TRP229      0.0003
    154  CD1       35.8590   21.9970    9.0500 C.ar  229  TRP229      0.0946
    155  CD2       34.6030   20.9570   10.5880 C.ar  229  TRP229      0.0152
    156  NE1       35.8120   20.6670    8.7250 N.ar  229  TRP229     -0.2442
    157  CE2       35.0480   20.0070    9.6610 C.ar  229  TRP229      0.0810
    158  CE3       33.7970   20.5450   11.6530 C.ar  229  TRP229      0.0012
    159  CZ2       34.7060   18.6570    9.7710 C.ar  229  TRP229      0.0191
    160  CZ3       33.4590   19.2050   11.7610 C.ar  229  TRP229      0.0001
    161  CH2       33.9200   18.2780   10.8200 C.ar  229  TRP229      0.0015
    162  N         31.3710   20.1820   20.1540 N.3   265  LYS265     -0.1245
    163  CA        32.4460   21.1770   20.2640 C.3   265  LYS265      0.1561
    164  C         32.4800   21.7940   21.6560 C.2   265  LYS265      0.2260
    165  O         31.4770   22.2250   22.2320 O.2   265  LYS265     -0.2867
    166  CB        32.3030   22.2690   19.2090 C.3   265  LYS265      0.0271
    167  CG        32.8970   21.9080   17.8600 C.3   265  LYS265      0.0035
    168  CD        34.3710   22.3080   17.7780 C.3   265  LYS265      0.0206
    169  CE        35.0800   21.6470   16.5930 C.3   265  LYS265      0.1093
    170  NZ        34.7350   22.2680   15.2950 N.3   265  LYS265     -0.1314
    171  N         32.0500   10.3490   19.3100 N.3   334  MET334     -0.1245
    172  CA        33.4120    9.8860   19.5960 C.3   334  MET334      0.1570
    173  C         33.5280    9.4930   21.0600 C.2   334  MET334      0.2261
    174  O         32.9920   10.2130   21.9080 O.2   334  MET334     -0.2867
    175  CB        34.4400   10.9830   19.2400 C.3   334  MET334      0.0387
    176  CG        34.6770   11.1050   17.7150 C.3   334  MET334      0.0595
    177  SD        35.8850   12.3810   17.3060 S.3   334  MET334     -0.1393
    178  CE        35.1800   13.8400   18.0730 C.3   334  MET334      0.0692
    179  N         43.1070    6.1850   16.6710 N.3   344  TRP344     -0.1241
    180  CA        43.2190    7.1410   15.5650 C.3   344  TRP344      0.1605
    181  C         44.5870    6.9670   14.8850 C.2   344  TRP344      0.2264
    182  O         44.7150    6.9780   13.6650 O.2   344  TRP344     -0.2867
    183  CB        43.0550    8.5900   15.9900 C.3   344  TRP344      0.0550
    184  CG        41.7850    9.0640   16.6120 C.ar  344  TRP344      0.0003
    185  CD1       41.7070    9.6610   17.8430 C.ar  344  TRP344      0.0946
    186  CD2       40.4430    9.0250   16.1110 C.ar  344  TRP344      0.0152
    187  NE1       40.4020    9.9850   18.1320 N.ar  344  TRP344     -0.2442
    188  CE2       39.6040    9.6050   17.0860 C.ar  344  TRP344      0.0810
    189  CE3       39.8480    8.5540   14.9470 C.ar  344  TRP344      0.0012
    190  CZ2       38.2200    9.7300   16.9300 C.ar  344  TRP344      0.0191
    191  CZ3       38.4740    8.6730   14.7770 C.ar  344  TRP344      0.0001
    192  CH2       37.6690    9.2580   15.7680 C.ar  344  TRP344      0.0015
    193  N         45.0040    6.0610   10.9670 N.3   348  ASP348     -0.1239
    194  CA        45.7410    6.9450   10.0570 C.3   348  ASP348      0.1674
    195  C         46.9790    6.2560    9.4930 C.2   348  ASP348      0.2266
    196  O         47.3850    6.5410    8.3600 O.2   348  ASP348     -0.2867
    197  CB        46.1280    8.2500   10.7640 C.3   348  ASP348      0.1410
    198  CG        44.9670    9.2380   10.7810 C.2   348  ASP348      0.3668
    199  OD1       44.2920    9.3780    9.7350 O.co2 348  ASP348     -0.2456
    200  OD2       44.7520    9.8560   11.8430 O.co2 348  ASP348     -0.2456
@<TRIPOS>BOND
     1   139   138    2
     2   138   137    1
     3   136   137    1
     4   137   140    1
     5   140   141    1
     6   143   141   ar
     7   143   145   ar
     8   141   142   ar
     9   145   146   ar
    10   142   144   ar
    11   132   134   ar
    12   132   130   ar
    13   146   144   ar
    14   146   147    1
    15    21    20    2
    16   100   101    1
    17   128   127    2
    18   134   135   ar
    19   129   130    1
    20   129   126    1
    21   127   126    1
    22   130   131   ar
    23    22    20   am
    24    20    19    1
    25   135   133   ar
    26   101   104    1
    27   101   102    1
    28   126   125    1
    29   103   102    2
    30   131   133   ar
    31   104   105    1
    32    19    18    1
    33    18    15    1
    34   102   108   am
    35   196   195    2
    36   156   154   ar
    37   156   157   ar
    38   125   115   am
    39   105   106    2
    40   105   107   am
    41   151   150    2
    42   150   149    1
    43   154   153   ar
    44    23    24    1
    45   108   109    1
    46   195   194    1
    47    16    15    1
    48    16    17    2
    49    15    14    1
    50   116   115    2
    51   157   159   ar
    52   157   155   ar
    53   199   198   ar
    54   115   114    1
    55   159   161   ar
    56   111   110    2
    57   194   197    1
    58   194   193    1
    59   109   110    1
    60   109   112    1
    61   153   155   ar
    62   153   152    1
    63   148   149    1
    64   149   152    1
    65   110   113   am
    66    24    27    1
    67    24    25    1
    68   155   158   ar
    69    14     8   am
    70    27    28    1
    71   197   198    1
    72   198   200   ar
    73   161   160   ar
    74   113   114    1
    75   114   117    1
    76   119   121   ar
    77   119   118   ar
    78    25    26    2
    79   121   123   ar
    80   158   160   ar
    81   117   118    1
    82     8     9    2
    83     8     7    1
    84    28    29    1
    85   118   120   ar
    86    30    29   ar
    87    29    31   ar
    88   123   124    1
    89   123   122   ar
    90     4     3    2
    91     7    10    1
    92     7     6    1
    93   120   122   ar
    94    10    11    1
    95   182   181    2
    96     3     6   am
    97     3     2    1
    98    93    92    1
    99    93    94    2
   100    95    92    1
   101    95    96    1
   102    92    91    1
   103   191   189   ar
   104   191   192   ar
   105    11    12    1
   106   181   180    1
   107   189   186   ar
   108    98    97   ar
   109     2     5    1
   110     2     1    1
   111    96    97    1
   112    54    53   ar
   113    54    52   ar
   114    97    99   ar
   115   170   169    1
   116    12    13    1
   117   180   183    1
   118   180   179    1
   119   192   190   ar
   120    53    51   ar
   121    52    50   ar
   122   183   184    1
   123   186   184   ar
   124   186   188   ar
   125   169   168    1
   126   184   185   ar
   127   190   188   ar
   128   188   187   ar
   129    51    48   ar
   130    50    48   ar
   131    50    49   ar
   132   177   176    1
   133   177   178    1
   134   176   175    1
   135   168   167    1
   136   185   187   ar
   137   167   166    1
   138    48    46   ar
   139    49    47   ar
   140    59    56    1
   141   166   163    1
   142    46    47   ar
   143    46    45    1
   144   175   172    1
   145    32    33    1
   146   171   172    1
   147    79    81   ar
   148    79    77   ar
   149    39    38   ar
   150    55    56    1
   151    55    43   am
   152   172   173    1
   153    67    65   ar
   154    66    65   ar
   155    56    57    1
   156    81    80   ar
   157    36    33    1
   158    36    37    1
   159    76    77   ar
   160    76    74   ar
   161    42    43    1
   162    42    45    1
   163    42    41    1
   164    65    64    1
   165   162   163    1
   166    77    75   ar
   167   163   164    1
   168    43    44    2
   169    33    34    1
   170    38    37    1
   171    38    40   ar
   172    34    35    2
   173   173   174    2
   174    57    58    2
   175    74    73   ar
   176    80    78   ar
   177    64    61    1
   178    90    89    1
   179    75    78   ar
   180    75    73   ar
   181   164   165    2
   182    73    72    1
   183    60    61    1
   184    61    62    1
   185    89    88    1
   186    62    68   am
   187    62    63    2
   188    68    69    1
   189    72    69    1
   190    69    70    1
   191    88    87    1
   192    87    86    1
   193    70    71    2
   194    86    83    1
   195    82    83    1
   196    83    84    1
   197    84    85    2
