@<TRIPOS>MOLECULE
tmp/1elrA00.pdb
 171 160 0 0 0
SMALL
GASTEIGER

@<TRIPOS>ATOM
      1  N         11.6630    6.7180   24.3910 N.3     8  LYS8       -0.1231
      2  CA        12.6330    6.8260   23.3040 C.3     8  LYS8        0.1693
      3  C         13.9600    7.3990   23.7890 C.2     8  LYS8        0.2591
      4  O         15.0290    6.9100   23.4180 O.2     8  LYS8       -0.2718
      5  CB        12.0970    7.7090   22.1830 C.3     8  LYS8        0.0285
      6  CG        13.0320    7.7920   20.9990 C.3     8  LYS8        0.0035
      7  CD        12.7510    9.0010   20.1400 C.3     8  LYS8        0.0206
      8  CE        12.9490   10.2770   20.9200 C.3     8  LYS8        0.1093
      9  NZ        13.0430   11.4140   19.9850 N.3     8  LYS8       -0.1314
     10  N         13.8970    8.4370   24.6210 N.am    9  GLU9       -0.1979
     11  CA        15.1240    9.0530   25.1130 C.3     9  GLU9        0.1602
     12  C         15.9420    8.1420   26.0240 C.2     9  GLU9        0.2287
     13  O         17.1790    8.1820   26.0100 O.2     9  GLU9       -0.2864
     14  CB        14.8100   10.3740   25.8260 C.3     9  GLU9        0.0415
     15  CG        14.5710   11.5350   24.8650 C.3     9  GLU9        0.1163
     16  CD        15.5960   11.5920   23.7060 C.2     9  GLU9        0.3649
     17  OE1       16.8230   11.4460   23.9300 O.co2   9  GLU9       -0.2457
     18  OE2       15.1590   11.8000   22.5550 O.co2   9  GLU9       -0.2457
     19  N         17.6870    5.9860   23.6320 N.3    12  ASN12      -0.1240
     20  CA        18.7950    6.6590   22.9500 C.3    12  ASN12       0.1653
     21  C         20.0300    6.7150   23.8420 C.2    12  ASN12       0.2266
     22  O         21.1360    6.4530   23.3760 O.2    12  ASN12      -0.2867
     23  CB        18.4150    8.0950   22.5250 C.3    12  ASN12       0.1155
     24  CG        17.3650    8.1360   21.4100 C.2    12  ASN12       0.2627
     25  OD1       17.1350    7.1480   20.7090 O.2    12  ASN12      -0.2716
     26  ND2       16.7380    9.3030   21.2300 N.am   12  ASN12      -0.0877
     27  N         21.5550    3.2530   23.9070 N.3    15  TYR15      -0.1227
     28  CA        22.1660    2.9760   22.6120 C.3    15  TYR15       0.1736
     29  C         23.5770    3.5980   22.5280 C.2    15  TYR15       0.2595
     30  O         24.5380    2.9580   22.1020 O.2    15  TYR15      -0.2718
     31  CB        21.3020    3.5790   21.5030 C.3    15  TYR15       0.0548
     32  CG        21.9850    3.6310   20.1500 C.ar   15  TYR15      -0.0200
     33  CD1       22.1140    2.4800   19.3680 C.ar   15  TYR15      -0.0009
     34  CD2       22.4910    4.8350   19.6460 C.ar   15  TYR15      -0.0009
     35  CE1       22.7210    2.5260   18.1160 C.ar   15  TYR15       0.0417
     36  CE2       23.1120    4.8890   18.3870 C.ar   15  TYR15       0.0417
     37  CZ        23.2150    3.7290   17.6300 C.ar   15  TYR15       0.1957
     38  OH        23.7620    3.7700   16.3660 O.3    15  TYR15      -0.2866
     39  N         23.6870    4.8530   22.9270 N.am   16  LYS16      -0.1980
     40  CA        24.9700    5.5430   22.8600 C.3    16  LYS16       0.1596
     41  C         26.0750    4.9280   23.7120 C.2    16  LYS16       0.2287
     42  O         27.2610    5.0800   23.3950 O.2    16  LYS16      -0.2864
     43  CB        24.7720    7.0170   23.1990 C.3    16  LYS16       0.0298
     44  CG        24.0010    7.7540   22.1190 C.3    16  LYS16       0.0038
     45  CD        23.6960    9.1820   22.5060 C.3    16  LYS16       0.0206
     46  CE        22.7920    9.8290   21.4610 C.3    16  LYS16       0.1093
     47  NZ        22.2000   11.1110   21.9420 N.3    16  LYS16      -0.1314
     48  N         26.3090    1.8030   24.0520 N.3    18  LYS18      -0.1245
     49  CA        26.3950    0.4650   23.5070 C.3    18  LYS18       0.1561
     50  C         25.6160   -0.5650   24.3280 C.2    18  LYS18       0.2260
     51  O         25.8860   -1.7600   24.2690 O.2    18  LYS18      -0.2867
     52  CB        27.8690    0.0590   23.3440 C.3    18  LYS18       0.0271
     53  CG        28.6070    0.9960   22.3910 C.3    18  LYS18       0.0035
     54  CD        30.1070    0.7600   22.3530 C.3    18  LYS18       0.0206
     55  CE        30.7070    1.4690   21.1480 C.3    18  LYS18       0.1093
     56  NZ        30.2720    2.8980   21.0650 N.3    18  LYS18      -0.1314
     57  N         22.7640   -2.1210   23.9760 N.3    20  PHE20      -0.1241
     58  CA        21.7480   -2.4200   22.9750 C.3    20  PHE20       0.1605
     59  C         20.4950   -3.1540   23.4330 C.2    20  PHE20       0.2264
     60  O         19.4100   -2.9440   22.8790 O.2    20  PHE20      -0.2867
     61  CB        22.4160   -3.1690   21.8190 C.3    20  PHE20       0.0534
     62  CG        23.5570   -2.4130   21.2040 C.ar   20  PHE20      -0.0203
     63  CD1       24.7720   -3.0410   20.9410 C.ar   20  PHE20      -0.0042
     64  CD2       23.4230   -1.0680   20.8900 C.ar   20  PHE20      -0.0042
     65  CE1       25.8270   -2.3320   20.3740 C.ar   20  PHE20      -0.0003
     66  CE2       24.4750   -0.3570   20.3260 C.ar   20  PHE20      -0.0003
     67  CZ        25.6810   -0.9960   20.0680 C.ar   20  PHE20      -0.0000
     68  N         12.7600    1.1570   23.0750 N.3    27  TYR27      -0.1241
     69  CA        12.1970    1.5440   21.7820 C.3    27  TYR27       0.1605
     70  C         10.9230    0.7260   21.5520 C.2    27  TYR27       0.2264
     71  O          9.9780    1.2060   20.9140 O.2    27  TYR27      -0.2867
     72  CB        13.1710    1.2780   20.6340 C.3    27  TYR27       0.0534
     73  CG        14.3830    2.1650   20.6210 C.ar   27  TYR27      -0.0201
     74  CD1       15.5950    1.6930   20.1330 C.ar   27  TYR27      -0.0009
     75  CD2       14.3210    3.4840   21.0740 C.ar   27  TYR27      -0.0009
     76  CE1       16.7190    2.5100   20.0850 C.ar   27  TYR27       0.0417
     77  CE2       15.4510    4.3140   21.0390 C.ar   27  TYR27       0.0417
     78  CZ        16.6420    3.8110   20.5380 C.ar   27  TYR27       0.1957
     79  OH        17.7710    4.6080   20.4940 O.3    27  TYR27      -0.2866
     80  N         10.2420    6.9780   13.6350 N.3    39  THR39      -0.1218
     81  CA        11.5300    7.2030   14.2850 C.3    39  THR39       0.1862
     82  C         11.9520    6.0810   15.2510 C.2    39  THR39       0.2287
     83  O         13.1220    5.7390   15.3110 O.2    39  THR39      -0.2866
     84  CB        11.5530    8.5460   15.0540 C.3    39  THR39       0.1770
     85  OG1       11.3520    9.6250   14.1360 O.3    39  THR39      -0.2211
     86  CG2       12.8960    8.7460   15.7360 C.3    39  THR39       0.0375
     87  N         13.2960    3.3070   12.9790 N.3    42  THR42      -0.1203
     88  CA        14.6130    3.5770   12.4100 C.3    42  THR42       0.1994
     89  C         15.6760    3.5290   13.5140 C.2    42  THR42       0.2617
     90  O         16.8330    3.1640   13.2520 O.2    42  THR42      -0.2717
     91  CB        14.6790    4.9480   11.6550 C.3    42  THR42       0.1784
     92  OG1       14.3270    6.0320   12.5340 O.3    42  THR42      -0.2211
     93  CG2       13.7270    4.9240   10.4620 C.3    42  THR42       0.0376
     94  N         15.2950    3.8940   14.7410 N.am   43  ASN43      -0.1974
     95  CA        16.2360    3.8460   15.8720 C.3    43  ASN43       0.1688
     96  C         16.5830    2.3870   16.1680 C.2    43  ASN43       0.2292
     97  O         17.7370    2.0620   16.4740 O.2    43  ASN43      -0.2864
     98  CB        15.6380    4.5100   17.1300 C.3    43  ASN43       0.1181
     99  CG        15.7820    6.0260   17.1220 C.2    43  ASN43       0.2629
    100  OD1       16.2930    6.6080   16.1570 O.2    43  ASN43      -0.2716
    101  ND2       15.3430    6.6780   18.2120 N.am   43  ASN43      -0.0877
    102  N         19.1270    1.2180   13.8500 N.3    46  ALA46      -0.1245
    103  CA        20.4700    1.6680   14.1910 C.3    46  ALA46       0.1562
    104  C         21.0920    0.6920   15.1670 C.2    46  ALA46       0.2260
    105  O         22.2740    0.3780   15.0730 O.2    46  ALA46      -0.2867
    106  CB        20.4270    3.0890   14.8010 C.3    46  ALA46       0.0290
    107  N         22.1490   -2.3490   13.2870 N.3    49  PHE49      -0.1227
    108  CA        23.3010   -1.9890   12.4620 C.3    49  PHE49       0.1736
    109  C         24.5760   -2.0980   13.3200 C.2    49  PHE49       0.2595
    110  O         25.5800   -2.7020   12.9010 O.2    49  PHE49      -0.2718
    111  CB        23.1440   -0.5410   11.9670 C.3    49  PHE49       0.0547
    112  CG        24.2820   -0.0590   11.1100 C.ar   49  PHE49      -0.0202
    113  CD1       24.1280    0.0380    9.7320 C.ar   49  PHE49      -0.0042
    114  CD2       25.4920    0.3180   11.6810 C.ar   49  PHE49      -0.0042
    115  CE1       25.1690    0.5090    8.9330 C.ar   49  PHE49      -0.0003
    116  CE2       26.5390    0.7920   10.9000 C.ar   49  PHE49      -0.0003
    117  CZ        26.3790    0.8890    9.5230 C.ar   49  PHE49      -0.0000
    118  N         24.5320   -1.5070   14.5160 N.am   50  GLU50      -0.1979
    119  CA        25.6920   -1.5000   15.4120 C.3    50  GLU50       0.1602
    120  C         26.0110   -2.8700   16.0140 C.2    50  GLU50       0.2287
    121  O         27.1240   -3.1060   16.4730 O.2    50  GLU50      -0.2864
    122  CB        25.5230   -0.4410   16.5120 C.3    50  GLU50       0.0415
    123  CG        25.4920    1.0220   16.0030 C.3    50  GLU50       0.1163
    124  CD        26.7690    1.4560   15.2940 C.2    50  GLU50       0.3649
    125  OE1       27.8590    1.0290   15.7110 O.co2  50  GLU50      -0.2457
    126  OE2       26.6930    2.2470   14.3260 O.co2  50  GLU50      -0.2457
    127  N         12.4830   11.8470    7.3660 N.3    77  GLN77      -0.1245
    128  CA        12.8030   10.6110    8.0820 C.3    77  GLN77       0.1566
    129  C         12.9010    9.4340    7.1300 C.2    77  GLN77       0.2260
    130  O         13.6240    8.4770    7.3930 O.2    77  GLN77      -0.2867
    131  CB        11.7720   10.3100    9.1680 C.3    77  GLN77       0.0367
    132  CG        12.3110    9.3560   10.2580 C.3    77  GLN77       0.0905
    133  CD        13.4850    9.9590   11.0600 C.2    77  GLN77       0.2608
    134  OE1       13.5810   11.1810   11.2220 O.2    77  GLN77      -0.2717
    135  NE2       14.3620    9.0960   11.5820 N.am   77  GLN77      -0.0878
    136  N         16.2370    9.4850    5.7730 N.3    80  LYS80      -0.1245
    137  CA        17.1410    8.8980    6.7570 C.3    80  LYS80       0.1561
    138  C         17.0980    7.3730    6.7080 C.2    80  LYS80       0.2260
    139  O         18.1470    6.7210    6.8300 O.2    80  LYS80      -0.2867
    140  CB        16.7710    9.3670    8.1700 C.3    80  LYS80       0.0271
    141  CG        17.1550   10.8230    8.4700 C.3    80  LYS80       0.0035
    142  CD        16.7460   11.2140    9.8870 C.3    80  LYS80       0.0206
    143  CE        17.1590   12.6370   10.2180 C.3    80  LYS80       0.1093
    144  NZ        16.7150   13.0030   11.5890 N.3    80  LYS80      -0.1314
    145  N         20.2000    4.8510    5.8490 N.3    84  ARG84      -0.1245
    146  CA        20.6450    3.7840    6.7460 C.3    84  ARG84       0.1563
    147  C         20.7620    2.4650    5.9790 C.2    84  ARG84       0.2260
    148  O         21.6880    1.6940    6.2070 O.2    84  ARG84      -0.2867
    149  CB        19.6570    3.6250    7.9180 C.3    84  ARG84       0.0307
    150  CG        20.0770    2.5710    8.9460 C.3    84  ARG84       0.0489
    151  CD        19.6770    2.9890   10.3760 C.3    84  ARG84       0.2205
    152  NE        20.4250    4.1850   10.7560 N.pl3  84  ARG84      -0.0865
    153  CZ        19.9630    5.1390   11.5530 C.cat  84  ARG84       0.5346
    154  NH1       18.7420    5.0420   12.0940 N.pl3  84  ARG84       0.1354
    155  NH2       20.6800    6.2380   11.7320 N.pl3  84  ARG84       0.1354
    156  N         23.8930    2.7400    4.1530 N.3    87  ASN87      -0.1240
    157  CA        25.0430    2.5280    5.0180 C.3    87  ASN87       0.1653
    158  C         25.3030    1.0520    5.3300 C.2    87  ASN87       0.2266
    159  O         26.4610    0.6190    5.3840 O.2    87  ASN87      -0.2867
    160  CB        24.8750    3.3020    6.3210 C.3    87  ASN87       0.1155
    161  CG        25.1650    4.7820    6.1610 C.2    87  ASN87       0.2627
    162  OD1       25.6260    5.2370    5.1090 O.2    87  ASN87      -0.2716
    163  ND2       24.9210    5.5430    7.2230 N.am   87  ASN87      -0.0877
    164  N         25.8800   15.0080    4.4840 N.3   113  ASP113     -0.1239
    165  CA        26.5300   13.7760    4.9190 C.3   113  ASP113      0.1674
    166  C         26.2390   12.6200    3.9700 C.2   113  ASP113      0.2266
    167  O         27.1330   11.8570    3.6270 O.2   113  ASP113     -0.2867
    168  CB        26.1170   13.3970    6.3470 C.3   113  ASP113      0.1410
    169  CG        26.6860   14.3450    7.3930 C.2   113  ASP113      0.3668
    170  OD1       27.7230   14.9870    7.1250 O.co2 113  ASP113     -0.2456
    171  OD2       26.1040   14.4330    8.4930 O.co2 113  ASP113     -0.2456
@<TRIPOS>BOND
     1   167   166    2
     2   166   165    1
     3   156   157    1
     4   164   165    1
     5   165   168    1
     6   157   158    1
     7   157   160    1
     8   162   161    2
     9   158   159    2
    10   136   137    1
    11   145   146    1
    12   147   148    2
    13   147   146    1
    14   161   160    1
    15   161   163   am
    16   168   169    1
    17   138   137    1
    18   138   139    2
    19   146   149    1
    20   137   140    1
    21   170   169   ar
    22   129   130    2
    23   129   128    1
    24   127   128    1
    25   169   171   ar
    26   149   150    1
    27   128   131    1
    28   140   141    1
    29   141   142    1
    30   115   117   ar
    31   115   113   ar
    32   150   151    1
    33   131   132    1
    34   117   116   ar
    35   113   112   ar
    36   142   143    1
    37   143   144    1
    38   132   133    1
    39   151   152    1
    40    93    91    1
    41   152   153    2
    42   116   114   ar
    43   133   134    2
    44   133   135   am
    45   112   114   ar
    46   112   111    1
    47   153   155    1
    48   153   154    1
    49    91    88    1
    50    91    92    1
    51   111   108    1
    52    88    87    1
    53    88    89    1
    54   108   107    1
    55   108   109    1
    56   110   109    2
    57    90    89    2
    58   109   118   am
    59    89    94   am
    60    80    81    1
    61   102   103    1
    62    85    84    1
    63   103   106    1
    64   103   104    1
    65    81    84    1
    66    81    82    1
    67   126   124   ar
    68   118   119    1
    69    94    95    1
    70    84    86    1
    71   105   104    2
    72    82    83    2
    73   124   125   ar
    74   124   123    1
    75   119   120    1
    76   119   122    1
    77    95    96    1
    78    95    98    1
    79   123   122    1
    80   120   121    2
    81   100    99    2
    82    96    97    2
    83    38    37    1
    84    99    98    1
    85    99   101   am
    86    37    35   ar
    87    37    36   ar
    88    35    33   ar
    89    36    34   ar
    90    33    32   ar
    91    34    32   ar
    92     9     8    1
    93    67    66   ar
    94    67    65   ar
    95    76    74   ar
    96    76    78   ar
    97    74    73   ar
    98     7     8    1
    99     7     6    1
   100    32    31    1
   101    66    64   ar
   102    65    63   ar
   103    79    78    1
   104    78    77   ar
   105    73    72    1
   106    73    75   ar
   107    72    69    1
   108    25    24    2
   109    64    62   ar
   110    71    70    2
   111    63    62   ar
   112     6     5    1
   113    77    75   ar
   114    56    55    1
   115    55    54    1
   116    62    61    1
   117    26    24   am
   118    24    23    1
   119    46    47    1
   120    46    45    1
   121    31    28    1
   122    70    69    1
   123    69    68    1
   124    61    58    1
   125    30    29    2
   126    44    45    1
   127    44    43    1
   128     5     2    1
   129    54    53    1
   130    53    52    1
   131    23    20    1
   132    29    28    1
   133    29    39   am
   134    18    16   ar
   135    28    27    1
   136    40    39    1
   137    40    43    1
   138    40    41    1
   139    60    59    2
   140    20    19    1
   141    20    21    1
   142    58    59    1
   143    58    57    1
   144     2     3    1
   145     2     1    1
   146    52    49    1
   147    22    21    2
   148    42    41    2
   149     4     3    2
   150    49    48    1
   151    49    50    1
   152    16    17   ar
   153    16    15    1
   154     3    10   am
   155    51    50    2
   156    10    11    1
   157    15    14    1
   158    11    14    1
   159    11    12    1
   160    13    12    2
