@<TRIPOS>MOLECULE
tmp/1eluB00.pdb
 139 131 0 0 0
SMALL
GASTEIGER

@<TRIPOS>ATOM
      1  N        -31.8470   11.1990  -14.4270 N.3    14  GLY14      -0.1210
      2  CA       -32.0960   11.1330  -15.8530 C.3    14  GLY14       0.1956
      3  C        -32.3050    9.7140  -16.3520 C.2    14  GLY14       0.2612
      4  O        -32.8760    9.5170  -17.4270 O.2    14  GLY14      -0.2717
      5  N        -31.7910    8.7450  -15.5940 N.am   15  GLY15      -0.1956
      6  CA       -31.9720    7.3270  -15.9090 C.3    15  GLY15       0.1869
      7  C        -33.3300    6.9450  -15.3270 C.2    15  GLY15       0.2309
      8  O        -34.2630    6.5060  -16.0290 O.2    15  GLY15      -0.2863
      9  N        -43.5440    4.7220  -21.7800 N.3    75  ASN75      -0.1225
     10  CA       -42.2040    5.2930  -21.7280 C.3    75  ASN75       0.1785
     11  C        -42.0250    6.3910  -22.7920 C.2    75  ASN75       0.2597
     12  O        -42.9640    6.6840  -23.5270 O.2    75  ASN75      -0.2718
     13  CB       -41.1970    4.1530  -21.9360 C.3    75  ASN75       0.1169
     14  CG       -41.5950    3.2090  -23.0750 C.2    75  ASN75       0.2627
     15  OD1      -41.7050    1.9950  -22.8930 O.2    75  ASN75      -0.2716
     16  ND2      -41.7990    3.7550  -24.2390 N.am   75  ASN75      -0.0877
     17  N        -40.8380    6.9810  -22.8790 N.am   76  VAL76      -0.1966
     18  CA       -40.6310    8.0320  -23.8880 C.3    76  VAL76       0.1727
     19  C        -40.7140    7.4570  -25.2870 C.2    76  VAL76       0.2616
     20  O        -41.3750    8.0300  -26.1690 O.2    76  VAL76      -0.2715
     21  CB       -39.2190    8.6640  -23.7720 C.3    76  VAL76       0.0290
     22  CG1      -39.0230    9.6990  -24.8830 C.3    76  VAL76       0.0023
     23  CG2      -39.0140    9.2750  -22.4130 C.3    76  VAL76       0.0023
     24  N        -40.0480    6.3170  -25.4870 N.am   77  THR77      -0.1951
     25  CA       -39.9470    5.7070  -26.8050 C.3    77  THR77       0.1897
     26  C        -41.2870    5.4640  -27.4660 C.2    77  THR77       0.2313
     27  O        -41.4700    5.8230  -28.6240 O.2    77  THR77      -0.2863
     28  CB       -39.0690    4.4010  -26.7690 C.3    77  THR77       0.1794
     29  OG1      -37.7490    4.7380  -26.2830 O.3    77  THR77      -0.2208
     30  CG2      -38.9340    3.7790  -28.1820 C.3    77  THR77       0.0378
     31  N        -31.2180    9.5730  -29.0310 N.3   102  HIS102     -0.1241
     32  CA       -31.1030    8.2770  -28.3960 C.3   102  HIS102      0.1621
     33  C        -31.0780    7.1590  -29.4220 C.2   102  HIS102      0.2264
     34  O        -31.7930    7.2070  -30.4150 O.2   102  HIS102     -0.2867
     35  CB       -32.2620    8.1170  -27.4180 C.3   102  HIS102      0.0745
     36  CG       -32.0330    7.0590  -26.3920 C.ar  102  HIS102      0.0817
     37  ND1      -32.3580    5.7350  -26.5980 N.ar  102  HIS102     -0.2268
     38  CD2      -31.5010    7.1290  -25.1480 C.ar  102  HIS102      0.1154
     39  CE1      -32.0450    5.0350  -25.5220 C.ar  102  HIS102      0.1986
     40  NE2      -31.5230    5.8560  -24.6270 N.ar  102  HIS102     -0.2212
     41  N        -34.4220    5.7370  -30.5950 N.3   105  ILE105     -0.1245
     42  CA       -35.2000    6.5810  -31.4920 C.3   105  ILE105      0.1561
     43  C        -34.6420    6.4430  -32.9240 C.2   105  ILE105      0.2260
     44  O        -35.3880    6.3170  -33.8970 O.2   105  ILE105     -0.2867
     45  CB       -35.1700    8.0590  -31.0110 C.3   105  ILE105      0.0252
     46  CG1      -35.7870    8.1670  -29.6130 C.3   105  ILE105      0.0019
     47  CG2      -35.8560    8.9740  -32.0250 C.3   105  ILE105      0.0019
     48  CD1      -36.7800    7.0770  -29.2660 C.3   105  ILE105      0.0001
     49  N        -34.0090   16.2570  -29.2290 N.3   152  SER152     -0.1217
     50  CA       -34.1980   16.1540  -27.7870 C.3   152  SER152      0.1889
     51  C        -34.0910   17.5920  -27.2750 C.2   152  SER152      0.2288
     52  O        -33.0910   18.2590  -27.5420 O.2   152  SER152     -0.2866
     53  CB       -33.0950   15.3030  -27.1660 C.3   152  SER152      0.2089
     54  OG       -33.2540   13.9420  -27.4870 O.3   152  SER152     -0.2183
     55  N        -33.6240   18.6750  -24.2660 N.3   154  LEU154     -0.1245
     56  CA       -32.4720   18.7250  -23.3740 C.3   154  LEU154      0.1561
     57  C        -31.6720   17.4980  -23.8230 C.2   154  LEU154      0.2260
     58  O        -32.1580   16.3530  -23.7380 O.2   154  LEU154     -0.2867
     59  CB       -32.9070   18.6050  -21.9140 C.3   154  LEU154      0.0270
     60  CG       -32.0650   19.2370  -20.7910 C.3   154  LEU154      0.0019
     61  CD1      -32.3390   18.4830  -19.5060 C.3   154  LEU154      0.0001
     62  CD2      -30.5650   19.2470  -21.0940 C.3   154  LEU154      0.0001
     63  N        -29.4590   14.3850  -23.8730 N.3   156  TRP156     -0.1241
     64  CA       -29.1300   13.4410  -22.8020 C.3   156  TRP156      0.1605
     65  C        -27.6310   13.1580  -22.6330 C.2   156  TRP156      0.2264
     66  O        -27.2130   12.7290  -21.5600 O.2   156  TRP156     -0.2867
     67  CB       -29.8620   12.1290  -23.0450 C.3   156  TRP156      0.0550
     68  CG       -29.4440   11.5290  -24.3190 C.ar  156  TRP156      0.0003
     69  CD1      -29.8140   11.9360  -25.5760 C.ar  156  TRP156      0.0946
     70  CD2      -28.4460   10.5270  -24.5040 C.ar  156  TRP156      0.0152
     71  NE1      -29.0980   11.2530  -26.5250 N.ar  156  TRP156     -0.2442
     72  CE2      -28.2520   10.3800  -25.8950 C.ar  156  TRP156      0.0810
     73  CE3      -27.6920    9.7340  -23.6310 C.ar  156  TRP156      0.0012
     74  CZ2      -27.3360    9.4810  -26.4310 C.ar  156  TRP156      0.0191
     75  CZ3      -26.7800    8.8370  -24.1670 C.ar  156  TRP156      0.0001
     76  CH2      -26.6130    8.7180  -25.5570 C.ar  156  TRP156      0.0015
     77  N        -38.1260   14.7730  -28.2670 N.3   185  ASP185     -0.1239
     78  CA       -37.8810   13.7050  -27.2860 C.3   185  ASP185      0.1674
     79  C        -37.6230   14.4870  -25.9940 C.2   185  ASP185      0.2266
     80  O        -36.5910   15.1520  -25.8290 O.2   185  ASP185     -0.2867
     81  CB       -36.6680   12.8660  -27.7170 C.3   185  ASP185      0.1410
     82  CG       -36.2580   11.8170  -26.6930 C.2   185  ASP185      0.3668
     83  OD1      -35.6890   10.7860  -27.1180 O.co2 185  ASP185     -0.2456
     84  OD2      -36.4690   12.0380  -25.4810 O.co2 185  ASP185     -0.2456
     85  N        -37.2990   13.2330  -22.9020 N.3   187  ALA187     -0.1231
     86  CA       -36.8720   12.3590  -21.8060 C.3   187  ALA187      0.1694
     87  C        -36.2230   13.1320  -20.6590 C.2   187  ALA187      0.2591
     88  O        -36.5340   12.8930  -19.4930 O.2   187  ALA187     -0.2718
     89  CB       -35.9190   11.2880  -22.3210 C.3   187  ALA187      0.0304
     90  N        -35.3280   14.0680  -20.9860 N.am  188  GLN188     -0.1979
     91  CA       -34.6360   14.8410  -19.9720 C.3   188  GLN188      0.1601
     92  C        -35.3020   16.1730  -19.5760 C.2   188  GLN188      0.2287
     93  O        -35.2290   16.5930  -18.4250 O.2   188  GLN188     -0.2864
     94  CB       -33.1820   15.0940  -20.4160 C.3   188  GLN188      0.0394
     95  CG       -32.4180   13.7990  -20.7170 C.3   188  GLN188      0.0908
     96  CD       -32.3700   12.8810  -19.5070 C.2   188  GLN188      0.2608
     97  OE1      -32.1940   13.3400  -18.3750 O.2   188  GLN188     -0.2717
     98  NE2      -32.4960   11.5780  -19.7410 N.am  188  GLN188     -0.0878
     99  N        -40.9890    8.3650  -15.4760 N.3   210  HIS210     -0.1226
    100  CA       -40.0430    7.7020  -14.5730 C.3   210  HIS210      0.1752
    101  C        -38.6720    8.3040  -14.3610 C.2   210  HIS210      0.2595
    102  O        -37.8640    7.7770  -13.6030 O.2   210  HIS210     -0.2718
    103  CB       -39.9400    6.2110  -14.9780 C.3   210  HIS210      0.0759
    104  CG       -38.9690    5.9310  -16.0930 C.ar  210  HIS210      0.0818
    105  ND1      -39.2720    6.1300  -17.4280 N.ar  210  HIS210     -0.2268
    106  CD2      -37.7190    5.4010  -16.0660 C.ar  210  HIS210      0.1154
    107  CE1      -38.2560    5.7230  -18.1680 C.ar  210  HIS210      0.1986
    108  NE2      -37.3010    5.2750  -17.3680 N.ar  210  HIS210     -0.2212
    109  N        -38.4310    9.4550  -14.9960 N.am  211  LYS211     -0.1980
    110  CA       -37.1480   10.1260  -14.8520 C.3   211  LYS211      0.1596
    111  C        -37.2930   11.3370  -13.9130 C.2   211  LYS211      0.2287
    112  O        -37.4590   11.1510  -12.7120 O.2   211  LYS211     -0.2864
    113  CB       -36.5980   10.5010  -16.2430 C.3   211  LYS211      0.0298
    114  CG       -36.3070    9.2380  -17.1110 C.3   211  LYS211      0.0038
    115  CD       -35.9330    9.5920  -18.5520 C.3   211  LYS211      0.0206
    116  CE       -35.7440    8.3550  -19.4100 C.3   211  LYS211      0.1093
    117  NZ       -34.5620    7.5970  -19.0140 N.3   211  LYS211     -0.1314
    118  N        -23.6170    7.8360  -14.5940 N.3   348  ARG348     -0.1245
    119  CA       -23.6460    6.8940  -15.7040 C.3   348  ARG348      0.1563
    120  C        -22.6740    7.2420  -16.8160 C.2   348  ARG348      0.2260
    121  O        -22.3360    8.4050  -17.0190 O.2   348  ARG348     -0.2867
    122  CB       -25.0550    6.7640  -16.3040 C.3   348  ARG348      0.0307
    123  CG       -25.5030    7.8890  -17.2040 C.3   348  ARG348      0.0489
    124  CD       -26.6280    7.4330  -18.1230 C.3   348  ARG348      0.2205
    125  NE       -26.0900    6.7000  -19.2670 N.pl3 348  ARG348     -0.0865
    126  CZ       -26.8190    6.0850  -20.1910 C.cat 348  ARG348      0.5346
    127  NH1      -28.1420    6.0960  -20.1210 N.pl3 348  ARG348      0.1354
    128  NH2      -26.2140    5.4730  -21.2110 N.pl3 348  ARG348      0.1354
    129  N        -21.8390   11.1990  -16.9680 N.3   357  ARG357     -0.1245
    130  CA       -22.9090   12.1620  -16.7550 C.3   357  ARG357      0.1563
    131  C        -23.5080   12.1320  -15.3480 C.2   357  ARG357      0.2260
    132  O        -23.7850   11.0690  -14.7800 O.2   357  ARG357     -0.2867
    133  CB       -24.0140   11.9380  -17.7980 C.3   357  ARG357      0.0307
    134  CG       -25.1020   13.0330  -17.8140 C.3   357  ARG357      0.0489
    135  CD       -26.3620   12.5460  -18.5250 C.3   357  ARG357      0.2205
    136  NE       -27.1230   11.5740  -17.7320 N.pl3 357  ARG357     -0.0865
    137  CZ       -28.1480   10.8670  -18.2000 C.cat 357  ARG357      0.5346
    138  NH1      -28.5550   11.0070  -19.4650 N.pl3 357  ARG357      0.1354
    139  NH2      -28.7730   10.0130  -17.4060 N.pl3 357  ARG357      0.1354
@<TRIPOS>BOND
     1    44    43    2
     2    43    42    1
     3    47    45    1
     4    42    45    1
     5    42    41    1
     6    45    46    1
     7    34    33    2
     8    46    48    1
     9    33    32    1
    10    49    50    1
    11    31    32    1
    12    27    26    2
    13    32    35    1
    14    77    78    1
    15    30    28    1
    16    50    51    1
    17    50    53    1
    18    81    78    1
    19    81    82    1
    20    52    51    2
    21    54    53    1
    22    26    25    1
    23    35    36    1
    24    78    79    1
    25    83    82   ar
    26    25    28    1
    27    25    24    1
    28    28    29    1
    29    82    84   ar
    30    37    36   ar
    31    37    39   ar
    32    71    72   ar
    33    71    69   ar
    34    74    72   ar
    35    74    76   ar
    36    36    38   ar
    37    20    19    2
    38    79    80    2
    39    72    70   ar
    40    69    68   ar
    41    76    75   ar
    42    39    40   ar
    43    24    19   am
    44    19    18    1
    45    38    40   ar
    46    22    21    1
    47    70    68   ar
    48    70    73   ar
    49    68    67    1
    50    55    56    1
    51    16    14   am
    52    75    73   ar
    53    18    21    1
    54    18    17    1
    55    63    64    1
    56    57    58    2
    57    57    56    1
    58    21    23    1
    59    12    11    2
    60    56    59    1
    61    14    15    2
    62    14    13    1
    63    67    64    1
    64    85    86    1
    65    17    11   am
    66    64    65    1
    67    11    10    1
    68    65    66    2
    69    89    86    1
    70    13    10    1
    71    59    60    1
    72    86    87    1
    73     9    10    1
    74   128   126    1
    75    62    60    1
    76    90    87   am
    77    90    91    1
    78    60    61    1
    79    95    94    1
    80    95    96    1
    81    87    88    2
    82    94    91    1
    83   126   127    1
    84   126   125    2
    85    91    92    1
    86    98    96   am
    87    92    93    2
    88    96    97    2
    89   138   137    1
    90   116   117    1
    91   116   115    1
    92   125   124    1
    93   115   114    1
    94   135   134    1
    95   135   136    1
    96   137   136    2
    97   137   139    1
    98   107   105   ar
    99   107   108   ar
   100   124   123    1
   101   134   133    1
   102   133   130    1
   103   105   104   ar
   104     4     3    2
   105   108   106   ar
   106   123   122    1
   107   114   113    1
   108   121   120    2
   109   129   130    1
   110   120   119    1
   111   130   131    1
   112     3     2    1
   113     3     5   am
   114   122   119    1
   115   113   110    1
   116   104   106   ar
   117   104   103    1
   118     8     7    2
   119     6     5    1
   120     6     7    1
   121     2     1    1
   122   119   118    1
   123    99   100    1
   124   131   132    2
   125   109   110    1
   126   109   101   am
   127   103   100    1
   128   110   111    1
   129   100   101    1
   130   101   102    2
   131   111   112    2
