@<TRIPOS>MOLECULE
tmp/1elvA00.pdb
 89 87 0 0 0
SMALL
GASTEIGER

@<TRIPOS>ATOM
      1  N          3.3770  -11.3560   50.5910 N.3    44  HIS44      -0.1241
      2  CA         3.2250  -12.1810   51.7940 C.3    44  HIS44       0.1621
      3  C          1.7230  -12.2970   52.0750 C.2    44  HIS44       0.2264
      4  O          0.9340  -11.4360   51.6890 O.2    44  HIS44      -0.2867
      5  CB         3.9640  -11.6370   53.0140 C.3    44  HIS44       0.0745
      6  CG         3.4100  -10.3830   53.5920 C.ar   44  HIS44       0.0817
      7  ND1        3.8770   -9.1450   53.2390 N.ar   44  HIS44      -0.2268
      8  CD2        2.4430  -10.1640   54.5130 C.ar   44  HIS44       0.1154
      9  CE1        3.2100   -8.2030   53.8800 C.ar   44  HIS44       0.1986
     10  NE2        2.3230   -8.7980   54.6520 N.ar   44  HIS44      -0.2212
     11  N         -1.0860  -11.6910   54.2360 N.3    46  ALA46      -0.1231
     12  CA        -1.3390  -10.7520   55.3100 C.3    46  ALA46       0.1694
     13  C         -2.4780  -11.1720   56.2020 C.2    46  ALA46       0.2593
     14  O         -3.3060  -12.0250   55.8870 O.2    46  ALA46      -0.2718
     15  CB        -1.6170   -9.3810   54.6800 C.3    46  ALA46       0.0304
     16  N         -2.5550  -10.5150   57.3560 N.am   47  GLY47      -0.1942
     17  CA        -3.5850  -10.7940   58.3280 C.3    47  GLY47       0.2014
     18  C         -4.9810  -10.4180   57.8910 C.2    47  GLY47       0.2639
     19  O         -5.9530  -10.8310   58.5280 O.2    47  GLY47      -0.2714
     20  N         -5.1510   -9.6590   56.8090 N.am   48  ASN48      -0.1958
     21  CA        -6.4910   -9.3210   56.3360 C.3    48  ASN48       0.1819
     22  C         -6.9120  -10.2830   55.2310 C.2    48  ASN48       0.2622
     23  O         -7.9630  -10.1160   54.6210 O.2    48  ASN48      -0.2715
     24  CB        -6.6050   -7.8730   55.9170 C.3    48  ASN48       0.1195
     25  CG        -5.7020   -7.5170   54.7560 C.2    48  ASN48       0.2630
     26  OD1       -4.9960   -8.3930   54.2510 O.2    48  ASN48      -0.2716
     27  ND2       -5.7300   -6.2570   54.3750 N.am   48  ASN48      -0.0877
     28  N         -6.0980  -11.3100   54.9720 N.am   49  GLY49      -0.1940
     29  CA        -6.4240  -12.3210   54.0020 C.3    49  GLY49       0.2014
     30  C         -5.9770  -12.0400   52.5920 C.2    49  GLY49       0.2639
     31  O         -6.2340  -12.8840   51.7110 O.2    49  GLY49      -0.2714
     32  N         -5.3000  -10.9340   52.3630 N.am   50  SER50      -0.1949
     33  CA        -4.8290  -10.6550   51.0090 C.3    50  SER50       0.1924
     34  C         -3.3430  -10.9730   50.8690 C.2    50  SER50       0.2314
     35  O         -2.5670  -10.8300   51.8000 O.2    50  SER50      -0.2863
     36  CB        -4.9350   -9.1340   50.7440 C.3    50  SER50       0.2116
     37  OG        -6.2840   -8.7360   50.5960 O.3    50  SER50      -0.2180
     38  N         -0.1000   -9.5280   49.6990 N.3    52  VAL52      -0.1231
     39  CA         0.2900   -8.1330   49.5870 C.3    52  VAL52       0.1692
     40  C          1.7560   -7.9400   49.2740 C.2    52  VAL52       0.2592
     41  O          2.6360   -8.5920   49.8150 O.2    52  VAL52      -0.2718
     42  CB         0.0070   -7.4270   50.9460 C.3    52  VAL52       0.0266
     43  CG1        0.4080   -5.9620   50.9260 C.3    52  VAL52       0.0020
     44  CG2       -1.4540   -7.5690   51.3210 C.3    52  VAL52       0.0020
     45  N          2.0110   -6.9950   48.3710 N.am   53  ASN53      -0.1960
     46  CA         3.3530   -6.6470   47.9310 C.3    53  ASN53       0.1819
     47  C          3.6970   -5.2370   48.3990 C.2    53  ASN53       0.2621
     48  O          2.7990   -4.3960   48.5070 O.2    53  ASN53      -0.2715
     49  CB         3.3740   -6.7120   46.3970 C.3    53  ASN53       0.1195
     50  CG         4.6370   -6.1670   45.7870 C.2    53  ASN53       0.2630
     51  OD1        4.6940   -4.9800   45.4690 O.2    53  ASN53      -0.2716
     52  ND2        5.6580   -6.9960   45.6210 N.am   53  ASN53      -0.0877
     53  N          4.9500   -4.9520   48.6870 N.am   54  GLU54      -0.1977
     54  CA         5.3260   -3.6460   49.2070 C.3    54  GLU54       0.1602
     55  C          4.9700   -2.4710   48.3190 C.2    54  GLU54       0.2287
     56  O          4.5750   -1.4060   48.7890 O.2    54  GLU54      -0.2864
     57  CB         6.8270   -3.6150   49.5290 C.3    54  GLU54       0.0415
     58  CG         7.1840   -2.4630   50.4720 C.3    54  GLU54       0.1163
     59  CD         8.7960   -2.3790   50.5500 C.2    54  GLU54       0.3649
     60  OE1        9.2930   -2.9440   51.4790 O.co2  54  GLU54      -0.2457
     61  OE2        9.5020   -1.7110   49.7550 O.co2  54  GLU54      -0.2457
     62  N          2.9260   -2.7600   45.1950 N.3    56  LEU56      -0.1231
     63  CA         1.6150   -2.8680   44.5820 C.3    56  LEU56       0.1693
     64  C          0.4630   -3.1520   45.5010 C.2    56  LEU56       0.2593
     65  O         -0.6940   -3.1610   45.0520 O.2    56  LEU56      -0.2718
     66  CB         1.6830   -3.9960   43.5270 C.3    56  LEU56       0.0284
     67  CG         2.7190   -3.8010   42.4310 C.3    56  LEU56       0.0019
     68  CD1        2.7450   -5.0180   41.5210 C.3    56  LEU56       0.0001
     69  CD2        2.4110   -2.5380   41.6370 C.3    56  LEU56       0.0001
     70  N          0.7290   -3.4400   46.7710 N.am   57  GLY57      -0.1943
     71  CA        -0.4070   -3.7700   47.6520 C.3    57  GLY57       0.1998
     72  C         -0.9320   -5.1360   47.1820 C.2    57  GLY57       0.2481
     73  O         -0.1420   -6.0080   46.8460 O.2    57  GLY57      -0.2729
     74  N         -2.2390   -5.2780   47.0980 N.am   58  PRO58      -0.2715
     75  CA        -2.8670   -6.5010   46.6540 C.3    58  PRO58       0.1536
     76  C         -2.9170   -6.6210   45.1380 C.2    58  PRO58       0.2598
     77  O         -3.2810   -7.6850   44.6520 O.2    58  PRO58      -0.2715
     78  CB        -4.2900   -6.3780   47.1870 C.3    58  PRO58       0.0310
     79  CG        -4.5570   -4.9050   47.1490 C.3    58  PRO58       0.0237
     80  CD        -3.2400   -4.2550   47.4730 C.3    58  PRO58       0.0939
     81  N         -2.5900   -5.5640   44.4170 N.am   59  GLU59      -0.1978
     82  CA        -2.6310   -5.6630   42.9550 C.3    59  GLU59       0.1602
     83  C         -1.5500   -6.6050   42.4470 C.2    59  GLU59       0.2287
     84  O         -0.4600   -6.6740   43.0240 O.2    59  GLU59      -0.2864
     85  CB        -2.4340   -4.2660   42.3560 C.3    59  GLU59       0.0415
     86  CG        -3.4450   -3.2450   42.8420 C.3    59  GLU59       0.1163
     87  CD        -4.8710   -3.5990   42.4560 C.2    59  GLU59       0.3649
     88  OE1       -5.2210   -3.1630   41.3800 O.co2  59  GLU59      -0.2457
     89  OE2       -5.5760   -4.1980   43.2880 O.co2  59  GLU59      -0.2457
@<TRIPOS>BOND
     1    88    87   ar
     2    68    67    1
     3    69    67    1
     4    85    86    1
     5    85    82    1
     6    67    66    1
     7    83    82    1
     8    83    84    2
     9    87    86    1
    10    87    89   ar
    11    82    81    1
    12    66    63    1
    13    81    76   am
    14    63    62    1
    15    63    64    1
    16    77    76    2
    17    65    64    2
    18    76    75    1
    19    51    50    2
    20    64    70   am
    21    52    50   am
    22    50    49    1
    23    49    46    1
    24    75    74    1
    25    75    78    1
    26    70    71    1
    27    73    72    2
    28    74    72   am
    29    74    80    1
    30    79    78    1
    31    79    80    1
    32    72    71    1
    33    46    45    1
    34    46    47    1
    35    55    56    2
    36    55    54    1
    37    45    40   am
    38    47    48    2
    39    47    53   am
    40    53    54    1
    41    54    57    1
    42    40    39    1
    43    40    41    2
    44    57    58    1
    45    39    38    1
    46    39    42    1
    47    61    59   ar
    48    58    59    1
    49    59    60   ar
    50     1     2    1
    51    37    36    1
    52    36    33    1
    53    34    33    1
    54    34    35    2
    55    43    42    1
    56    42    44    1
    57    33    32    1
    58     4     3    2
    59    31    30    2
    60     2     3    1
    61     2     5    1
    62    32    30   am
    63    30    29    1
    64     5     6    1
    65     7     6   ar
    66     7     9   ar
    67     6     8   ar
    68     9    10   ar
    69    29    28    1
    70    11    12    1
    71    26    25    2
    72    27    25   am
    73     8    10   ar
    74    23    22    2
    75    15    12    1
    76    25    24    1
    77    28    22   am
    78    22    21    1
    79    12    13    1
    80    14    13    2
    81    24    21    1
    82    13    16   am
    83    21    20    1
    84    20    18   am
    85    16    17    1
    86    18    17    1
    87    18    19    2
