@<TRIPOS>MOLECULE
tmp/1elwA00.pdb
 192 181 0 0 0
SMALL
GASTEIGER

@<TRIPOS>ATOM
      1  N         41.5470   49.3170   30.7930 N.3     7  LYS7       -0.1231
      2  CA        41.0930   49.4500   29.4080 C.3     7  LYS7        0.1693
      3  C         39.9660   48.4450   29.1370 C.2     7  LYS7        0.2591
      4  O         38.9550   48.7930   28.5210 O.2     7  LYS7       -0.2718
      5  CB        42.2420   49.1970   28.4120 C.3     7  LYS7        0.0285
      6  CG        41.7970   49.3750   26.9640 C.3     7  LYS7        0.0035
      7  CD        42.7760   48.7430   25.9660 C.3     7  LYS7        0.0206
      8  CE        42.7550   47.2340   26.0980 C.3     7  LYS7        0.1093
      9  NZ        43.3660   46.5180   24.9630 N.3     7  LYS7       -0.1314
     10  N         40.1580   47.1970   29.5760 N.am    8  GLU8       -0.1979
     11  CA        39.1550   46.1520   29.3710 C.3     8  GLU8        0.1602
     12  C         37.8760   46.4880   30.1090 C.2     8  GLU8        0.2287
     13  O         36.7820   46.2350   29.6180 O.2     8  GLU8       -0.2864
     14  CB        39.6670   44.7990   29.8720 C.3     8  GLU8        0.0415
     15  CG        40.7130   44.1870   28.9940 C.3     8  GLU8        0.1163
     16  CD        40.2220   44.0370   27.5770 C.2     8  GLU8        0.3649
     17  OE1       39.1150   43.4740   27.3790 O.co2   8  GLU8       -0.2457
     18  OE2       40.9410   44.4840   26.6590 O.co2   8  GLU8       -0.2457
     19  N         36.1830   48.9410   28.0140 N.3    11  ASN11      -0.1240
     20  CA        35.5820   48.3240   26.8350 C.3    11  ASN11       0.1653
     21  C         34.2680   47.6260   27.2310 C.2    11  ASN11       0.2266
     22  O         33.2810   47.6810   26.4900 O.2    11  ASN11      -0.2867
     23  CB        36.5470   47.2890   26.2080 C.3    11  ASN11       0.1155
     24  CG        37.7800   47.9150   25.5590 C.2    11  ASN11       0.2627
     25  OD1       38.6530   47.1810   25.0620 O.2    11  ASN11      -0.2716
     26  ND2       37.8630   49.2440   25.5440 N.am   11  ASN11      -0.0877
     27  N         31.5450   50.1670   27.9110 N.3    14  LEU14      -0.1245
     28  CA        31.0690   50.6890   26.6430 C.3    14  LEU14       0.1561
     29  C         30.1480   49.6600   25.9830 C.2    14  LEU14       0.2260
     30  O         29.1200   50.0280   25.3880 O.2    14  LEU14      -0.2867
     31  CB        32.2820   51.0150   25.7580 C.3    14  LEU14       0.0270
     32  CG        32.0390   51.9490   24.5740 C.3    14  LEU14       0.0019
     33  CD1       31.4600   53.2550   25.0300 C.3    14  LEU14       0.0001
     34  CD2       33.3650   52.1780   23.8470 C.3    14  LEU14       0.0001
     35  N         38.7230   54.7230   30.9840 N.3    26  TYR26      -0.1241
     36  CA        39.8060   55.1260   30.0830 C.3    26  TYR26       0.1605
     37  C         40.6090   56.2920   30.6520 C.2    26  TYR26       0.2264
     38  O         41.8360   56.3340   30.5350 O.2    26  TYR26      -0.2867
     39  CB        39.2690   55.5300   28.7140 C.3    26  TYR26       0.0534
     40  CG        38.5190   54.4290   28.0110 C.ar   26  TYR26      -0.0201
     41  CD1       38.9810   53.1150   28.0330 C.ar   26  TYR26      -0.0009
     42  CD2       37.3850   54.7250   27.2530 C.ar   26  TYR26      -0.0009
     43  CE1       38.3360   52.1150   27.3030 C.ar   26  TYR26       0.0417
     44  CE2       36.7230   53.7340   26.5170 C.ar   26  TYR26       0.0417
     45  CZ        37.2100   52.4390   26.5450 C.ar   26  TYR26       0.1957
     46  OH        36.5990   51.4870   25.7820 O.3    26  TYR26      -0.2866
     47  N         46.3760   53.7600   22.5590 N.3    38  VAL38      -0.1245
     48  CA        45.1600   52.9590   22.4880 C.3    38  VAL38       0.1561
     49  C         44.0930   53.5190   23.4130 C.2    38  VAL38       0.2260
     50  O         42.9120   53.5190   23.0790 O.2    38  VAL38      -0.2867
     51  CB        45.4370   51.4950   22.8510 C.3    38  VAL38       0.0252
     52  CG1       44.1250   50.7120   22.8930 C.3    38  VAL38       0.0019
     53  CG2       46.3920   50.8990   21.8120 C.3    38  VAL38       0.0019
     54  N         42.5470   56.5510   21.8090 N.3    41  SER41      -0.1202
     55  CA        41.7360   56.1620   20.6740 C.3    41  SER41       0.2020
     56  C         40.4030   55.6130   21.1850 C.2    41  SER41       0.2618
     57  O         39.3490   55.9550   20.6510 O.2    41  SER41      -0.2717
     58  CB        42.4470   55.0970   19.8370 C.3    41  SER41       0.2103
     59  OG        41.5650   54.6300   18.8350 O.3    41  SER41      -0.2182
     60  N         40.4470   54.7840   22.2240 N.am   42  ASN42      -0.1974
     61  CA        39.1950   54.2350   22.7770 C.3    42  ASN42       0.1688
     62  C         38.3550   55.3530   23.4050 C.2    42  ASN42       0.2292
     63  O         37.1220   55.3660   23.2730 O.2    42  ASN42      -0.2864
     64  CB        39.4960   53.1830   23.8520 C.3    42  ASN42       0.1181
     65  CG        39.9490   51.8570   23.2760 C.2    42  ASN42       0.2629
     66  OD1       40.1710   51.7250   22.0760 O.2    42  ASN42      -0.2716
     67  ND2       40.0970   50.8570   24.1480 N.am   42  ASN42      -0.0877
     68  N         36.5310   57.2250   20.8230 N.3    45  ALA45      -0.1245
     69  CA        35.3670   56.4600   20.3860 C.3    45  ALA45       0.1562
     70  C         34.2100   56.6580   21.3490 C.2    45  ALA45       0.2260
     71  O         33.0690   56.8870   20.9300 O.2    45  ALA45      -0.2867
     72  CB        35.7270   54.9530   20.2980 C.3    45  ALA45       0.0290
     73  N         32.7630   60.0680   20.9860 N.3    48  ALA48      -0.1231
     74  CA        31.9890   60.1590   19.7470 C.3    48  ALA48       0.1694
     75  C         30.6260   59.4930   19.9400 C.2    48  ALA48       0.2591
     76  O         29.6100   59.9880   19.4530 O.2    48  ALA48      -0.2718
     77  CB        32.7450   59.5090   18.5730 C.3    48  ALA48       0.0304
     78  N         30.5970   58.3640   20.6470 N.am   49  LYS49      -0.1980
     79  CA        29.3200   57.6870   20.8880 C.3    49  LYS49       0.1596
     80  C         28.4190   58.5390   21.7730 C.2    49  LYS49       0.2287
     81  O         27.1990   58.5750   21.5950 O.2    49  LYS49      -0.2864
     82  CB        29.5600   56.3250   21.5440 C.3    49  LYS49       0.0298
     83  CG        30.1090   55.2880   20.5950 C.3    49  LYS49       0.0038
     84  CD        30.5400   54.0350   21.3620 C.3    49  LYS49       0.0206
     85  CE        31.1870   53.0170   20.4370 C.3    49  LYS49       0.1093
     86  NZ        30.2750   52.4970   19.3600 N.3    49  LYS49      -0.1314
     87  N         50.1460   54.9930   13.1840 N.3    70  TRP70      -0.1241
     88  CA        48.9330   54.1940   13.2920 C.3    70  TRP70       0.1605
     89  C         47.7340   54.8130   12.5750 C.2    70  TRP70       0.2264
     90  O         47.2140   55.8560   12.9770 O.2    70  TRP70      -0.2867
     91  CB        48.6190   53.9620   14.7740 C.3    70  TRP70       0.0550
     92  CG        47.5770   52.9070   15.0000 C.ar   70  TRP70       0.0003
     93  CD1       47.5270   51.6660   14.4310 C.ar   70  TRP70       0.0946
     94  CD2       46.5020   52.9620   15.9430 C.ar   70  TRP70       0.0152
     95  NE1       46.4850   50.9430   14.9690 N.ar   70  TRP70      -0.2442
     96  CE2       45.8460   51.7150   15.9030 C.ar   70  TRP70       0.0810
     97  CE3       46.0360   53.9440   16.8270 C.ar   70  TRP70       0.0012
     98  CZ2       44.7480   51.4220   16.7170 C.ar   70  TRP70       0.0191
     99  CZ3       44.9410   53.6490   17.6370 C.ar   70  TRP70       0.0001
    100  CH2       44.3160   52.3980   17.5740 C.ar   70  TRP70       0.0015
    101  N         44.5950   54.0910   12.4430 N.3    72  LYS72      -0.1245
    102  CA        43.3200   54.2420   13.1430 C.3    72  LYS72       0.1561
    103  C         43.1860   55.5400   13.9030 C.2    72  LYS72       0.2260
    104  O         42.0790   56.0480   14.0880 O.2    72  LYS72      -0.2867
    105  CB        43.0940   53.0390   14.0630 C.3    72  LYS72       0.0271
    106  CG        41.6820   52.8870   14.5270 C.3    72  LYS72       0.0035
    107  CD        41.4700   51.4820   15.1450 C.3    72  LYS72       0.0206
    108  CE        40.0540   51.2750   15.5300 C.3    72  LYS72       0.1093
    109  NZ        39.8710   49.9480   16.2100 N.3    72  LYS72      -0.1314
    110  N         41.7410   57.9300   11.6860 N.3    75  SER75      -0.1202
    111  CA        40.3050   57.6810   11.5220 C.3    75  SER75       0.2020
    112  C         39.5570   58.2910   12.7050 C.2    75  SER75       0.2618
    113  O         38.4860   58.8590   12.5350 O.2    75  SER75      -0.2717
    114  CB        40.0230   56.1820   11.4330 C.3    75  SER75       0.2103
    115  OG        40.4450   55.6900   10.1720 O.3    75  SER75      -0.2182
    116  N         40.1070   58.1750   13.9160 N.am   76  ARG76      -0.1979
    117  CA        39.4420   58.7660   15.0760 C.3    76  ARG76       0.1597
    118  C         39.3290   60.2670   14.8920 C.2    76  ARG76       0.2287
    119  O         38.2820   60.8550   15.1210 O.2    76  ARG76      -0.2864
    120  CB        40.2480   58.5650   16.3660 C.3    76  ARG76       0.0334
    121  CG        40.3220   57.1490   16.9150 C.3    76  ARG76       0.0492
    122  CD        38.9340   56.5790   17.1730 C.3    76  ARG76       0.2205
    123  NE        39.0160   55.2120   17.6680 N.pl3  76  ARG76      -0.0865
    124  CZ        38.0220   54.3290   17.6090 C.cat  76  ARG76       0.5346
    125  NH1       36.8520   54.6720   17.0630 N.pl3  76  ARG76       0.1354
    126  NH2       38.1910   53.1080   18.1130 N.pl3  76  ARG76       0.1354
    127  N         36.9840   61.1710   11.9360 N.3    79  ALA79      -0.1245
    128  CA        35.5610   60.9370   12.1840 C.3    79  ALA79       0.1562
    129  C         35.0090   62.0830   13.0220 C.2    79  ALA79       0.2260
    130  O         33.8860   62.5500   12.7860 O.2    79  ALA79      -0.2867
    131  CB        35.3380   59.6070   12.9060 C.3    79  ALA79       0.0290
    132  N         34.3890   65.0510   10.9090 N.3    82  GLU82      -0.1231
    133  CA        33.1680   64.9110   10.1050 C.3    82  GLU82       0.1699
    134  C         31.9600   65.2790   10.9650 C.2    82  GLU82       0.2592
    135  O         31.0710   66.0220   10.5160 O.2    82  GLU82      -0.2718
    136  CB        33.0220   63.4840    9.5750 C.3    82  GLU82       0.0402
    137  CG        34.0890   63.1320    8.5240 C.3    82  GLU82       0.1161
    138  CD        33.7800   61.8280    7.7970 C.2    82  GLU82       0.3649
    139  OE1       32.5760   61.5550    7.5820 O.co2  82  GLU82      -0.2457
    140  OE2       34.7200   61.1000    7.4150 O.co2  82  GLU82      -0.2457
    141  N         31.9070   64.7490   12.1800 N.am   83  PHE83      -0.1976
    142  CA        30.7940   65.0650   13.0850 C.3    83  PHE83       0.1639
    143  C         30.7610   66.5740   13.3400 C.2    83  PHE83       0.2290
    144  O         29.6860   67.1760   13.5080 O.2    83  PHE83      -0.2864
    145  CB        30.9670   64.3570   14.4240 C.3    83  PHE83       0.0560
    146  CG        30.5500   62.9190   14.4240 C.ar   83  PHE83      -0.0200
    147  CD1       31.4670   61.9150   14.7410 C.ar   83  PHE83      -0.0042
    148  CD2       29.2230   62.5690   14.1860 C.ar   83  PHE83      -0.0042
    149  CE1       31.0710   60.5810   14.8280 C.ar   83  PHE83      -0.0003
    150  CE2       28.8060   61.2330   14.2690 C.ar   83  PHE83      -0.0003
    151  CZ        29.7340   60.2320   14.5930 C.ar   83  PHE83      -0.0000
    152  N         34.6760   69.0910    7.1450 N.3    87  PHE87      -0.1241
    153  CA        35.0020   68.1330    6.1130 C.3    87  PHE87       0.1605
    154  C         36.3000   68.3380    5.3520 C.2    87  PHE87       0.2264
    155  O         36.9290   67.3640    4.9380 O.2    87  PHE87      -0.2867
    156  CB        33.8070   68.0290    5.1670 C.3    87  PHE87       0.0534
    157  CG        32.5410   67.5990    5.8650 C.ar   87  PHE87      -0.0203
    158  CD1       32.3830   66.2830    6.3030 C.ar   87  PHE87      -0.0042
    159  CD2       31.5270   68.5150    6.1180 C.ar   87  PHE87      -0.0042
    160  CE1       31.2290   65.8890    6.9810 C.ar   87  PHE87      -0.0003
    161  CE2       30.3590   68.1240    6.8040 C.ar   87  PHE87      -0.0003
    162  CZ        30.2160   66.8190    7.2300 C.ar   87  PHE87      -0.0000
    163  N         42.5190   62.2390    6.5300 N.3    94  TYR94      -0.1241
    164  CA        42.6130   60.9310    5.9090 C.3    94  TYR94       0.1605
    165  C         43.8680   60.9050    5.0370 C.2    94  TYR94       0.2264
    166  O         44.5650   59.9000    4.9830 O.2    94  TYR94      -0.2867
    167  CB        41.3850   60.6500    5.0250 C.3    94  TYR94       0.0534
    168  CG        40.1220   60.4100    5.8170 C.ar   94  TYR94      -0.0201
    169  CD1       39.0010   61.2220    5.6500 C.ar   94  TYR94      -0.0009
    170  CD2       40.0570   59.3630    6.7340 C.ar   94  TYR94      -0.0009
    171  CE1       37.8440   60.9940    6.3940 C.ar   94  TYR94       0.0417
    172  CE2       38.9170   59.1210    7.4710 C.ar   94  TYR94       0.0417
    173  CZ        37.8180   59.9410    7.2990 C.ar   94  TYR94       0.1957
    174  OH        36.7070   59.7100    8.0650 O.3    94  TYR94      -0.2866
    175  N         40.2310   51.7330    5.8870 N.3   106  GLN106     -0.1245
    176  CA        39.3380   52.7170    6.5020 C.3   106  GLN106      0.1566
    177  C         39.6900   54.1410    6.0940 C.2   106  GLN106      0.2260
    178  O         38.8020   54.9560    5.8860 O.2   106  GLN106     -0.2867
    179  CB        39.3500   52.6060    8.0320 C.3   106  GLN106      0.0367
    180  CG        38.7610   51.3100    8.5770 C.3   106  GLN106      0.0905
    181  CD        39.6280   50.1090    8.2730 C.2   106  GLN106      0.2608
    182  OE1       40.8150   50.0890    8.5970 O.2   106  GLN106     -0.2717
    183  NE2       39.0380   49.0940    7.6470 N.am  106  GLN106     -0.0878
    184  N         38.6350   54.5990    2.4710 N.3   109  GLU109     -0.1245
    185  CA        37.1920   54.7810    2.4050 C.3   109  GLU109      0.1567
    186  C         36.8330   56.2040    2.8370 C.2   109  GLU109      0.2260
    187  O         36.0310   56.8840    2.1910 O.2   109  GLU109     -0.2867
    188  CB        36.5170   53.7550    3.3090 C.3   109  GLU109      0.0388
    189  CG        35.0140   53.6510    3.1500 C.3   109  GLU109      0.1160
    190  CD        34.4540   52.4880    3.9430 C.2   109  GLU109      0.3649
    191  OE1       35.0080   51.3680    3.8190 O.co2 109  GLU109     -0.2457
    192  OE2       33.4690   52.6840    4.6900 O.co2 109  GLU109     -0.2457
@<TRIPOS>BOND
     1   187   186    2
     2   185   184    1
     3   185   186    1
     4   185   188    1
     5   189   188    1
     6   189   190    1
     7   191   190   ar
     8   190   192   ar
     9   155   154    2
    10   166   165    2
    11   167   168    1
    12   167   164    1
    13   165   164    1
    14   156   157    1
    15   156   153    1
    16   154   153    1
    17   169   168   ar
    18   169   171   ar
    19   168   170   ar
    20   157   159   ar
    21   157   158   ar
    22   178   177    2
    23   175   176    1
    24   164   163    1
    25   177   176    1
    26   153   152    1
    27   159   161   ar
    28   158   160   ar
    29   171   173   ar
    30   176   179    1
    31   170   172   ar
    32   161   162   ar
    33   160   162   ar
    34   173   172   ar
    35   173   174    1
    36   140   138   ar
    37   139   138   ar
    38   183   181   am
    39   138   137    1
    40   179   180    1
    41   181   180    1
    42   181   182    2
    43   137   136    1
    44   136   133    1
    45   133   132    1
    46   133   134    1
    47   115   114    1
    48   135   134    2
    49   134   141   am
    50   114   111    1
    51   111   110    1
    52   111   112    1
    53   127   128    1
    54   141   142    1
    55   128   131    1
    56   128   129    1
    57   101   102    1
    58   113   112    2
    59    89    90    2
    60    89    88    1
    61   112   116   am
    62   130   129    2
    63   142   143    1
    64   142   145    1
    65   102   103    1
    66   102   105    1
    67    87    88    1
    68    88    91    1
    69   143   144    2
    70   103   104    2
    71   116   117    1
    72   105   106    1
    73   148   150   ar
    74   148   146   ar
    75   150   151   ar
    76   145   146    1
    77   146   147   ar
    78    93    95   ar
    79    93    92   ar
    80   106   107    1
    81   151   149   ar
    82   147   149   ar
    83    91    92    1
    84   118   117    1
    85   118   119    2
    86    95    96   ar
    87    92    94   ar
    88   117   120    1
    89   107   108    1
    90   108   109    1
    91    96    94   ar
    92    96    98   ar
    93    94    97   ar
    94   120   121    1
    95    98   100   ar
    96    97    99   ar
    97   121   122    1
    98   125   124    1
    99   122   123    1
   100   100    99   ar
   101   124   123    2
   102   124   126    1
   103    77    74    1
   104    59    58    1
   105    86    85    1
   106    76    75    2
   107    74    75    1
   108    74    73    1
   109    58    55    1
   110    75    78   am
   111    72    69    1
   112    69    68    1
   113    69    70    1
   114    85    84    1
   115    83    84    1
   116    83    82    1
   117    78    79    1
   118    57    56    2
   119    55    56    1
   120    55    54    1
   121    79    82    1
   122    79    80    1
   123    71    70    2
   124    56    60   am
   125    81    80    2
   126    53    51    1
   127    66    65    2
   128    60    61    1
   129    48    47    1
   130    48    51    1
   131    48    49    1
   132    61    62    1
   133    61    64    1
   134    51    52    1
   135    50    49    2
   136    63    62    2
   137    65    64    1
   138    65    67   am
   139    34    32    1
   140    32    33    1
   141    32    31    1
   142     9     8    1
   143    25    24    2
   144    30    29    2
   145    26    24   am
   146    24    23    1
   147    31    28    1
   148    46    45    1
   149     7     8    1
   150     7     6    1
   151    29    28    1
   152    23    20    1
   153    22    21    2
   154    44    45   ar
   155    44    42   ar
   156    45    43   ar
   157    28    27    1
   158    18    16   ar
   159    20    21    1
   160    20    19    1
   161     6     5    1
   162    42    40   ar
   163    43    41   ar
   164    17    16   ar
   165    16    15    1
   166    40    41   ar
   167    40    39    1
   168     5     2    1
   169     4     3    2
   170    39    36    1
   171    15    14    1
   172     3     2    1
   173     3    10   am
   174    11    10    1
   175    11    14    1
   176    11    12    1
   177     2     1    1
   178    13    12    2
   179    36    37    1
   180    36    35    1
   181    38    37    2
