@<TRIPOS>MOLECULE
tmp/1em6B00.pdb
 152 145 0 0 0
SMALL
GASTEIGER

@<TRIPOS>ATOM
      1  N         14.2820   49.6200   44.2450 N.3   114  GLY114     -0.1210
      2  CA        13.7940   49.0800   42.9900 C.3   114  GLY114      0.1956
      3  C         13.7590   47.5720   42.8250 C.2   114  GLY114      0.2611
      4  O         12.7200   47.0100   42.4600 O.2   114  GLY114     -0.2717
      5  N         14.8930   46.9200   43.0720 N.am  115  LEU115     -0.1979
      6  CA        14.9880   45.4750   42.9240 C.3   115  LEU115      0.1596
      7  C         13.9280   44.7750   43.7690 C.2   115  LEU115      0.2287
      8  O         13.1570   43.9550   43.2660 O.2   115  LEU115     -0.2864
      9  CB        16.3930   45.0040   43.3170 C.3   115  LEU115      0.0297
     10  CG        16.7320   43.5150   43.1790 C.3   115  LEU115      0.0022
     11  CD1       18.2410   43.3410   43.1050 C.3   115  LEU115      0.0001
     12  CD2       16.1640   42.7450   44.3560 C.3   115  LEU115      0.0001
     13  N         10.3120   45.5310   42.6380 N.3   118  LEU118     -0.1245
     14  CA         9.9580   44.8640   41.3930 C.3   118  LEU118      0.1561
     15  C          9.4370   43.4560   41.7120 C.2   118  LEU118      0.2260
     16  O          8.5240   42.9530   41.0540 O.2   118  LEU118     -0.2867
     17  CB        11.1850   44.7540   40.4790 C.3   118  LEU118      0.0270
     18  CG        10.9120   44.0400   39.1480 C.3   118  LEU118      0.0019
     19  CD1       10.0140   44.9260   38.2870 C.3   118  LEU118      0.0001
     20  CD2       12.2250   43.7330   38.4260 C.3   118  LEU118      0.0001
     21  N         22.0180   49.3760   48.3310 N.3   252  ASP252     -0.1225
     22  CA        21.3220   49.4810   47.0610 C.3   252  ASP252      0.1805
     23  C         22.4130   49.7060   46.0230 C.2   252  ASP252      0.2597
     24  O         23.1470   50.6920   46.0910 O.2   252  ASP252     -0.2718
     25  CB        20.3460   50.6560   47.0690 C.3   252  ASP252      0.1424
     26  CG        19.5160   50.7150   45.8090 C.2   252  ASP252      0.3668
     27  OD1       20.0720   51.0630   44.7420 O.co2 252  ASP252     -0.2456
     28  OD2       18.3110   50.3930   45.8860 O.co2 252  ASP252     -0.2456
     29  N         22.5230   48.7800   45.0770 N.am  253  ASN253     -0.1974
     30  CA        23.5480   48.8360   44.0330 C.3   253  ASN253      0.1688
     31  C         24.9670   48.9540   44.5820 C.2   253  ASN253      0.2292
     32  O         25.7470   49.8000   44.1460 O.2   253  ASN253     -0.2864
     33  CB        23.2860   49.9850   43.0580 C.3   253  ASN253      0.1181
     34  CG        22.2310   49.6400   42.0330 C.2   253  ASN253      0.2629
     35  OD1       21.0440   49.8960   42.2320 O.2   253  ASN253     -0.2716
     36  ND2       22.6560   49.0320   40.9350 N.am  253  ASN253     -0.0877
     37  N         18.5850   38.8790   40.1610 N.3   299  ASP299     -0.1239
     38  CA        19.9530   39.3820   40.2510 C.3   299  ASP299      0.1674
     39  C         20.8220   38.1880   40.6650 C.2   299  ASP299      0.2266
     40  O         20.3170   37.0720   40.7760 O.2   299  ASP299     -0.2867
     41  CB        20.0590   40.5280   41.2630 C.3   299  ASP299      0.1410
     42  CG        21.2850   41.4090   41.0280 C.2   299  ASP299      0.3668
     43  OD1       21.2030   42.6210   41.3170 O.co2 299  ASP299     -0.2456
     44  OD2       22.3290   40.9060   40.5660 O.co2 299  ASP299     -0.2456
     45  N         22.2340   37.6190   43.5340 N.3   301  HIS301     -0.1241
     46  CA        22.1540   37.3020   44.9580 C.3   301  HIS301      0.1621
     47  C         21.8440   35.8320   45.2560 C.2   301  HIS301      0.2264
     48  O         22.3700   35.2660   46.2130 O.2   301  HIS301     -0.2867
     49  CB        21.1360   38.2330   45.6180 C.3   301  HIS301      0.0745
     50  CG        21.3580   39.6740   45.2750 C.ar  301  HIS301      0.0817
     51  ND1       20.3880   40.6420   45.4270 N.ar  301  HIS301     -0.2268
     52  CD2       22.4360   40.2990   44.7380 C.ar  301  HIS301      0.1154
     53  CE1       20.8570   41.8000   44.9930 C.ar  301  HIS301      0.1986
     54  NE2       22.0960   41.6190   44.5680 N.ar  301  HIS301     -0.2212
     55  N         20.2170   43.2490   36.9880 N.3   337  HIS337     -0.1226
     56  CA        19.6960   44.5880   37.2960 C.3   337  HIS337      0.1752
     57  C         20.8580   45.5310   37.5820 C.2   337  HIS337      0.2597
     58  O         20.6470   46.6770   37.9830 O.2   337  HIS337     -0.2718
     59  CB        18.8340   44.5960   38.5610 C.3   337  HIS337      0.0759
     60  CG        17.7770   43.5420   38.6070 C.ar  337  HIS337      0.0818
     61  ND1       18.0330   42.2460   39.0040 N.ar  337  HIS337     -0.2268
     62  CD2       16.4440   43.6110   38.3870 C.ar  337  HIS337      0.1154
     63  CE1       16.9010   41.5650   39.0320 C.ar  337  HIS337      0.1986
     64  NE2       15.9210   42.3710   38.6620 N.ar  337  HIS337     -0.2212
     65  N         22.0790   45.0420   37.3960 N.am  338  THR338     -0.1939
     66  CA        23.2670   45.8260   37.7040 C.3   338  THR338      0.2028
     67  C         24.0580   46.3550   36.5300 C.2   338  THR338      0.2642
     68  O         24.0860   45.7620   35.4610 O.2   338  THR338     -0.2714
     69  CB        24.2500   45.0160   38.5720 C.3   338  THR338      0.1808
     70  OG1       24.6920   43.8590   37.8400 O.3   338  THR338     -0.2208
     71  CG2       23.5770   44.5750   39.8570 C.3   338  THR338      0.0379
     72  N         24.7250   47.4750   36.7670 N.am  339  VAL339     -0.1977
     73  CA        25.5560   48.1160   35.7730 C.3   339  VAL339      0.1596
     74  C         26.8320   48.5930   36.4580 C.2   339  VAL339      0.2287
     75  O         27.9320   48.3960   35.9420 O.2   339  VAL339     -0.2864
     76  CB        24.8050   49.3080   35.1010 C.3   339  VAL339      0.0276
     77  CG1       23.5610   49.6820   35.9220 C.3   339  VAL339      0.0022
     78  CG2       25.7410   50.5140   34.9510 C.3   339  VAL339      0.0022
     79  N         16.6220   44.7720   32.3380 N.3   415  VAL415     -0.1245
     80  CA        15.3060   45.2630   32.7130 C.3   415  VAL415      0.1561
     81  C         14.7780   46.4800   31.9620 C.2   415  VAL415      0.2260
     82  O         13.8170   47.1200   32.4020 O.2   415  VAL415     -0.2867
     83  CB        15.2700   45.5500   34.2200 C.3   415  VAL415      0.0252
     84  CG1       15.3610   44.2370   34.9890 C.3   415  VAL415      0.0019
     85  CG2       16.4320   46.4570   34.5990 C.3   415  VAL415      0.0019
     86  N         11.0560   46.5390   32.8040 N.3   444  ASN444     -0.1240
     87  CA        10.3560   46.5600   34.0760 C.3   444  ASN444      0.1653
     88  C          8.9490   47.1230   33.9950 C.2   444  ASN444      0.2266
     89  O          8.5390   47.7010   32.9870 O.2   444  ASN444     -0.2867
     90  CB        11.1610   47.3670   35.0980 C.3   444  ASN444      0.1155
     91  CG        12.2640   46.5680   35.7180 C.2   444  ASN444      0.2627
     92  OD1       13.1300   47.1150   36.3860 O.2   444  ASN444     -0.2716
     93  ND2       12.2380   45.2620   35.5120 N.am  444  ASN444     -0.0877
     94  N         25.1500   57.9870   41.5540 N.3   533  TYR533     -0.1227
     95  CA        24.7060   57.7850   40.1830 C.3   533  TYR533      0.1736
     96  C         23.2900   58.3050   39.9320 C.2   533  TYR533      0.2595
     97  O         22.9630   58.6700   38.8000 O.2   533  TYR533     -0.2718
     98  CB        24.8240   56.3040   39.7910 C.3   533  TYR533      0.0548
     99  CG        23.6130   55.4320   40.0500 C.ar  533  TYR533     -0.0200
    100  CD1       22.5150   55.4590   39.1910 C.ar  533  TYR533     -0.0009
    101  CD2       23.5850   54.5500   41.1270 C.ar  533  TYR533     -0.0009
    102  CE1       21.4210   54.6270   39.3900 C.ar  533  TYR533      0.0417
    103  CE2       22.4910   53.7120   41.3390 C.ar  533  TYR533      0.0417
    104  CZ        21.4130   53.7570   40.4630 C.ar  533  TYR533      0.1957
    105  OH        20.3260   52.9360   40.6520 O.3   533  TYR533     -0.2866
    106  N         22.4640   58.3540   40.9810 N.am  534  LYS534     -0.1980
    107  CA        21.0880   58.8410   40.8610 C.3   534  LYS534      0.1596
    108  C         21.0930   60.3570   40.8460 C.2   534  LYS534      0.2287
    109  O         20.1150   61.0060   40.4590 O.2   534  LYS534     -0.2864
    110  CB        20.2280   58.3050   42.0110 C.3   534  LYS534      0.0298
    111  CG        19.8610   56.8320   41.8410 C.3   534  LYS534      0.0038
    112  CD        19.0530   56.3090   43.0140 C.3   534  LYS534      0.0206
    113  CE        18.7980   54.8120   42.9010 C.3   534  LYS534      0.1093
    114  NZ        17.9040   54.4810   41.7650 N.3   534  LYS534     -0.1314
    115  N         23.4800   54.5120   33.8500 N.3   628  THR628     -0.1203
    116  CA        23.5850   54.0490   35.2300 C.3   628  THR628      0.1994
    117  C         22.3380   53.3740   35.8280 C.2   628  THR628      0.2618
    118  O         22.4760   52.4550   36.6350 O.2   628  THR628     -0.2717
    119  CB        24.0260   55.1920   36.1610 C.3   628  THR628      0.1784
    120  OG1       23.0570   56.2460   36.1220 O.3   628  THR628     -0.2211
    121  CG2       25.3850   55.7250   35.7300 C.3   628  THR628      0.0376
    122  N         21.1400   53.8280   35.4610 N.am  629  GLU629     -0.1965
    123  CA        19.9000   53.2220   35.9660 C.3   629  GLU629      0.1733
    124  C         19.4660   52.1390   35.0090 C.2   629  GLU629      0.2616
    125  O         18.9250   52.4370   33.9470 O.2   629  GLU629     -0.2715
    126  CB        18.7640   54.2410   36.0590 C.3   629  GLU629      0.0429
    127  CG        18.7460   55.0320   37.3460 C.3   629  GLU629      0.1163
    128  CD        18.1480   54.2800   38.5250 C.2   629  GLU629      0.3649
    129  OE1       18.3680   53.0550   38.6840 O.co2 629  GLU629     -0.2457
    130  OE2       17.4650   54.9480   39.3190 O.co2 629  GLU629     -0.2457
    131  N         19.6910   50.8860   35.3780 N.am  630  ALA630     -0.1963
    132  CA        19.3220   49.7870   34.4980 C.3   630  ALA630      0.1728
    133  C         17.9250   50.0150   33.9420 C.2   630  ALA630      0.2617
    134  O         17.6690   49.7840   32.7640 O.2   630  ALA630     -0.2715
    135  CB        19.3780   48.4550   35.2520 C.3   630  ALA630      0.0334
    136  N         17.0190   50.4840   34.7910 N.am  631  SER631     -0.1936
    137  CA        15.6560   50.7170   34.3510 C.3   631  SER631      0.2055
    138  C         14.9440   51.8170   35.1030 C.2   631  SER631      0.2644
    139  O         14.5150   52.8120   34.5170 O.2   631  SER631     -0.2714
    140  CB        14.8390   49.4300   34.4810 C.3   631  SER631      0.2130
    141  OG        13.4560   49.6880   34.3100 O.3   631  SER631     -0.2179
    142  N         14.8150   51.6230   36.4100 N.am  632  GLY632     -0.1939
    143  CA        14.1070   52.5760   37.2340 C.3   632  GLY632      0.2014
    144  C         12.6530   52.1520   37.2150 C.2   632  GLY632      0.2639
    145  O         12.1950   51.5550   36.2280 O.2   632  GLY632     -0.2714
    146  N         11.9330   52.4150   38.3010 N.am  633  THR633     -0.1950
    147  CA        10.5120   52.0630   38.3770 C.3   633  THR633      0.1897
    148  C          9.7090   53.2080   38.9780 C.2   633  THR633      0.2313
    149  O          8.5090   53.3480   38.7190 O.2   633  THR633     -0.2863
    150  CB        10.2710   50.7650   39.1870 C.3   633  THR633      0.1794
    151  OG1       11.0090   50.8050   40.4090 O.3   633  THR633     -0.2208
    152  CG2       10.7010   49.5520   38.3730 C.3   633  THR633      0.0378
@<TRIPOS>BOND
     1    81    82    2
     2    81    80    1
     3    79    80    1
     4    80    83    1
     5   134   133    2
     6    86    87    1
     7    89    88    2
     8   115   116    1
     9   133   132    1
    10   133   136   am
    11   125   124    2
    12    88    87    1
    13    87    90    1
    14    83    85    1
    15    83    84    1
    16   141   140    1
    17   137   140    1
    18   137   136    1
    19   137   138    1
    20   132   135    1
    21   132   131    1
    22   139   138    2
    23    78    76    1
    24   124   131   am
    25   124   123    1
    26    90    91    1
    27    76    73    1
    28    76    77    1
    29   138   142   am
    30   116   117    1
    31   116   119    1
    32    68    67    2
    33   122   117   am
    34   122   123    1
    35    93    91   am
    36    91    92    2
    37   121   119    1
    38    73    74    1
    39    73    72    1
    40   117   118    2
    41    75    74    2
    42   123   126    1
    43   126   127    1
    44   120   119    1
    45   145   144    2
    46   142   143    1
    47    67    72   am
    48    67    66    1
    49    55    56    1
    50   144   143    1
    51   144   146   am
    52    56    57    1
    53    56    59    1
    54   127   128    1
    55    65    57   am
    56    65    66    1
    57    57    58    2
    58    66    69    1
    59    70    69    1
    60    19    18    1
    61   146   147    1
    62   152   150    1
    63   147   148    1
    64   147   150    1
    65    62    60   ar
    66    62    64   ar
    67    20    18    1
    68   128   129   ar
    69   128   130   ar
    70    59    60    1
    71    69    71    1
    72    60    61   ar
    73    64    63   ar
    74   149   148    2
    75    97    96    2
    76    61    63   ar
    77    18    17    1
    78   150   151    1
    79   100   102   ar
    80   100    99   ar
    81   102   104   ar
    82    98    99    1
    83    98    95    1
    84    96    95    1
    85    96   106   am
    86    99   101   ar
    87    37    38    1
    88    95    94    1
    89    38    39    1
    90    38    41    1
    91   109   108    2
    92   104   105    1
    93   104   103   ar
    94    17    14    1
    95    44    42   ar
    96    39    40    2
    97   108   107    1
    98   107   106    1
    99   107   110    1
   100    36    34   am
   101    42    41    1
   102    42    43   ar
   103    16    15    2
   104   101   103   ar
   105    14    15    1
   106    14    13    1
   107   114   113    1
   108   111   110    1
   109   111   112    1
   110    34    35    2
   111    34    33    1
   112     4     3    2
   113     3     2    1
   114     3     5   am
   115   113   112    1
   116     6     5    1
   117     6     9    1
   118     6     7    1
   119     2     1    1
   120    33    30    1
   121    11    10    1
   122    10     9    1
   123    10    12    1
   124     8     7    2
   125    45    46    1
   126    30    31    1
   127    30    29    1
   128    32    31    2
   129    54    52   ar
   130    54    53   ar
   131    52    50   ar
   132    27    26   ar
   133    46    47    1
   134    46    49    1
   135    53    51   ar
   136    29    23   am
   137    47    48    2
   138    50    51   ar
   139    50    49    1
   140    26    28   ar
   141    26    25    1
   142    23    24    2
   143    23    22    1
   144    22    25    1
   145    22    21    1
