@<TRIPOS>MOLECULE
tmp/1em6B01.pdb
 143 144 0 0 0
SMALL
GASTEIGER

@<TRIPOS>ATOM
      1  N        -12.7960   37.9460   70.3840 N.3    16  PHE16      -0.1227
      2  CA       -12.0720   36.6830   70.4680 C.3    16  PHE16       0.1736
      3  C        -10.5960   36.7100   70.0590 C.2    16  PHE16       0.2596
      4  O         -9.7750   36.0090   70.6420 O.2    16  PHE16      -0.2718
      5  CB       -12.7930   35.6180   69.6380 C.3    16  PHE16       0.0547
      6  CG       -14.1690   35.3010   70.1320 C.ar   16  PHE16      -0.0202
      7  CD1      -14.3490   34.6260   71.3340 C.ar   16  PHE16      -0.0042
      8  CD2      -15.2910   35.7000   69.4090 C.ar   16  PHE16      -0.0042
      9  CE1      -15.6350   34.3490   71.8120 C.ar   16  PHE16      -0.0003
     10  CE2      -16.5820   35.4320   69.8740 C.ar   16  PHE16      -0.0003
     11  CZ       -16.7550   34.7560   71.0760 C.ar   16  PHE16      -0.0000
     12  N        -10.2530   37.5170   69.0690 N.am   17  THR17      -0.1939
     13  CA        -8.8710   37.5740   68.6100 C.3    17  THR17       0.2028
     14  C         -7.9850   38.5870   69.3520 C.2    17  THR17       0.2642
     15  O         -6.8270   38.2870   69.6610 O.2    17  THR17      -0.2714
     16  CB        -8.8470   37.8380   67.0940 C.3    17  THR17       0.1808
     17  OG1       -9.6690   36.8570   66.4470 O.3    17  THR17      -0.2208
     18  CG2       -7.4390   37.7410   66.5410 C.3    17  THR17       0.0379
     19  N         -8.5190   39.7710   69.6460 N.am   18  LEU18      -0.1963
     20  CA        -7.7410   40.7870   70.3560 C.3    18  LEU18       0.1728
     21  C         -8.0370   40.8280   71.8520 C.2    18  LEU18       0.2616
     22  O         -7.3040   41.4590   72.6160 O.2    18  LEU18      -0.2715
     23  CB        -7.9880   42.1810   69.7540 C.3    18  LEU18       0.0311
     24  CG        -7.2420   42.5170   68.4550 C.3    18  LEU18       0.0022
     25  CD1       -5.7790   42.1210   68.6130 C.3    18  LEU18       0.0001
     26  CD2       -7.8560   41.7820   67.2740 C.3    18  LEU18       0.0001
     27  N         -9.1100   40.1570   72.2570 N.am   19  VAL19      -0.1977
     28  CA        -9.5280   40.1280   73.6530 C.3    19  VAL19       0.1596
     29  C         -9.7180   41.5520   74.1580 C.2    19  VAL19       0.2287
     30  O         -9.1180   41.9530   75.1570 O.2    19  VAL19      -0.2864
     31  CB        -8.4870   39.4330   74.5580 C.3    19  VAL19       0.0276
     32  CG1       -9.1260   39.0770   75.8940 C.3    19  VAL19       0.0022
     33  CG2       -7.9490   38.1860   73.8810 C.3    19  VAL19       0.0022
     34  N         -7.7910   41.0090   60.4130 N.3    36  HIS36      -0.1241
     35  CA        -8.2940   39.6470   60.5330 C.3    36  HIS36       0.1621
     36  C         -9.5900   39.4490   59.7700 C.2    36  HIS36       0.2264
     37  O         -9.7970   38.4070   59.1400 O.2    36  HIS36      -0.2867
     38  CB        -8.5020   39.2960   62.0110 C.3    36  HIS36       0.0745
     39  CG        -7.2530   38.8380   62.6970 C.ar   36  HIS36       0.0817
     40  ND1       -6.8680   37.5140   62.7330 N.ar   36  HIS36      -0.2268
     41  CD2       -6.2740   39.5330   63.3240 C.ar   36  HIS36       0.1154
     42  CE1       -5.7040   37.4130   63.3530 C.ar   36  HIS36       0.1986
     43  NE2       -5.3220   38.6250   63.7190 N.ar   36  HIS36      -0.2212
     44  N         -8.5190   39.3300   56.2120 N.3    39  ARG39      -0.1245
     45  CA        -7.7430   38.1140   56.0080 C.3    39  ARG39       0.1563
     46  C         -8.6010   36.8630   55.8140 C.2    39  ARG39       0.2260
     47  O         -8.2940   36.0080   54.9760 O.2    39  ARG39      -0.2867
     48  CB        -6.8170   37.9060   57.1960 C.3    39  ARG39       0.0307
     49  CG        -5.7060   36.9360   56.9380 C.3    39  ARG39       0.0489
     50  CD        -4.8700   36.7440   58.1930 C.3    39  ARG39       0.2205
     51  NE        -5.5610   35.9600   59.2100 N.pl3  39  ARG39      -0.0865
     52  CZ        -5.0570   35.7030   60.4150 C.cat  39  ARG39       0.5346
     53  NH1       -3.8640   36.1780   60.7480 N.pl3  39  ARG39       0.1354
     54  NH2       -5.7250   34.9560   61.2810 N.pl3  39  ARG39       0.1354
     55  N         -9.4580   35.7370   52.4150 N.3    42  LEU42      -0.1231
     56  CA        -8.3930   35.2090   51.5680 C.3    42  LEU42       0.1693
     57  C         -8.2870   33.6880   51.6160 C.2    42  LEU42       0.2591
     58  O         -7.9670   33.0480   50.6140 O.2    42  LEU42      -0.2718
     59  CB        -7.0360   35.7790   51.9940 C.3    42  LEU42       0.0284
     60  CG        -6.7000   37.2520   51.7850 C.3    42  LEU42       0.0019
     61  CD1       -5.4120   37.5670   52.5280 C.3    42  LEU42       0.0001
     62  CD2       -6.5490   37.5550   50.3030 C.3    42  LEU42       0.0001
     63  N         -8.5530   33.1190   52.7870 N.am   43  VAL43      -0.1980
     64  CA        -8.4010   31.6830   52.9940 C.3    43  VAL43       0.1595
     65  C         -9.0360   30.7530   51.9680 C.2    43  VAL43       0.2287
     66  O         -8.3520   29.9150   51.3850 O.2    43  VAL43      -0.2864
     67  CB        -8.8870   31.2710   54.4060 C.3    43  VAL43       0.0276
     68  CG1       -8.1290   32.0590   55.4610 C.3    43  VAL43       0.0022
     69  CG2      -10.3620   31.5320   54.5420 C.3    43  VAL43       0.0022
     70  N         -7.3090   30.9840   48.8530 N.3    46  TRP46      -0.1241
     71  CA        -5.9090   30.6120   48.9810 C.3    46  TRP46       0.1605
     72  C         -5.7970   29.0990   48.9300 C.2    46  TRP46       0.2264
     73  O         -4.9920   28.5560   48.1810 O.2    46  TRP46      -0.2867
     74  CB        -5.3300   31.1600   50.2890 C.3    46  TRP46       0.0550
     75  CG        -3.8360   31.1950   50.3220 C.ar   46  TRP46       0.0003
     76  CD1       -2.9850   30.9800   49.2740 C.ar   46  TRP46       0.0946
     77  CD2       -3.0080   31.5120   51.4500 C.ar   46  TRP46       0.0152
     78  NE1       -1.6840   31.1430   49.6800 N.ar   46  TRP46      -0.2442
     79  CE2       -1.6690   31.4700   51.0100 C.ar   46  TRP46       0.0810
     80  CE3       -3.2690   31.8270   52.7910 C.ar   46  TRP46       0.0012
     81  CZ2       -0.5890   31.7330   51.8640 C.ar   46  TRP46       0.0191
     82  CZ3       -2.1990   32.0870   53.6360 C.ar   46  TRP46       0.0001
     83  CH2       -0.8760   32.0380   53.1690 C.ar   46  TRP46       0.0015
     84  N          2.6860   39.9310   62.8630 N.3   166  ASN166     -0.1226
     85  CA         2.2950   40.1080   61.4710 C.3   166  ASN166      0.1770
     86  C          1.1100   39.1990   61.1760 C.2   166  ASN166      0.2439
     87  O          1.2480   37.9840   61.0860 O.2   166  ASN166     -0.2733
     88  CB         3.4900   39.7830   60.5580 C.3   166  ASN166      0.1168
     89  CG         3.1370   39.8050   59.0860 C.2   166  ASN166      0.2627
     90  OD1        2.2250   40.5110   58.6640 O.2   166  ASN166     -0.2716
     91  ND2        3.8750   39.0370   58.2920 N.am  166  ASN166     -0.0877
     92  N         -0.0850   39.7840   61.0350 N.am  167  PRO167     -0.2718
     93  CA        -1.2870   38.9970   60.7530 C.3   167  PRO167      0.1535
     94  C         -1.3040   38.4380   59.3340 C.2   167  PRO167      0.2599
     95  O         -2.0610   37.5230   59.0190 O.2   167  PRO167     -0.2715
     96  CB        -2.4130   39.9990   60.9880 C.3   167  PRO167      0.0310
     97  CG        -1.7980   41.2980   60.5290 C.3   167  PRO167      0.0237
     98  CD        -0.3900   41.2280   61.0990 C.3   167  PRO167      0.0939
     99  N         -0.4440   38.9840   58.4840 N.am  168  TRP168     -0.1960
    100  CA        -0.3920   38.5730   57.0920 C.3   168  TRP168      0.1771
    101  C          0.5080   37.3940   56.7820 C.2   168  TRP168      0.2620
    102  O          0.6870   37.0470   55.6160 O.2   168  TRP168     -0.2715
    103  CB        -0.0090   39.7720   56.2320 C.3   168  TRP168      0.0590
    104  CG        -0.9250   40.9080   56.4650 C.ar  168  TRP168      0.0006
    105  CD1       -0.6170   42.1110   57.0260 C.ar  168  TRP168      0.0946
    106  CD2       -2.3230   40.9470   56.1740 C.ar  168  TRP168      0.0152
    107  NE1       -1.7360   42.8990   57.1020 N.ar  168  TRP168     -0.2442
    108  CE2       -2.7980   42.2130   56.5820 C.ar  168  TRP168      0.0810
    109  CE3       -3.2210   40.0360   55.6010 C.ar  168  TRP168      0.0012
    110  CZ2       -4.1330   42.5960   56.4390 C.ar  168  TRP168      0.0191
    111  CZ3       -4.5530   40.4130   55.4560 C.ar  168  TRP168      0.0001
    112  CH2       -4.9960   41.6860   55.8750 C.ar  168  TRP168      0.0015
    113  N          1.0730   36.7770   57.8140 N.am  169  GLU169     -0.1963
    114  CA         1.9300   35.6230   57.6090 C.3   169  GLU169      0.1733
    115  C          1.4000   34.4340   58.4010 C.2   169  GLU169      0.2616
    116  O          0.7990   34.5890   59.4630 O.2   169  GLU169     -0.2715
    117  CB         3.3620   35.9110   58.0590 C.3   169  GLU169      0.0429
    118  CG         3.4640   36.2370   59.5330 C.3   169  GLU169      0.1163
    119  CD         4.8710   36.5290   59.9830 C.2   169  GLU169      0.3649
    120  OE1        5.7080   36.9270   59.1470 O.co2 169  GLU169     -0.2457
    121  OE2        5.1360   36.3750   61.1870 O.co2 169  GLU169     -0.2457
    122  N          1.6320   33.2470   57.8610 N.am  170  LYS170     -0.1963
    123  CA         1.2340   32.0120   58.5060 C.3   170  LYS170      0.1728
    124  C          2.4490   31.0990   58.5160 C.2   170  LYS170      0.2616
    125  O          2.9400   30.7010   57.4570 O.2   170  LYS170     -0.2715
    126  CB         0.1070   31.3300   57.7370 C.3   170  LYS170      0.0311
    127  CG        -0.2720   29.9760   58.3210 C.3   170  LYS170      0.0038
    128  CD        -0.8680   30.1430   59.7110 C.3   170  LYS170      0.0206
    129  CE        -1.1040   28.8130   60.4030 C.3   170  LYS170      0.1093
    130  NZ         0.1780   28.2030   60.8750 N.3   170  LYS170     -0.1314
    131  N          2.9500   30.7840   59.7050 N.am  171  SER171     -0.1950
    132  CA         4.0950   29.9030   59.7990 C.3   171  SER171      0.1924
    133  C          3.6770   28.5230   59.3010 C.2   171  SER171      0.2314
    134  O          2.5450   28.0810   59.5180 O.2   171  SER171     -0.2863
    135  CB         4.5970   29.8190   61.2430 C.3   171  SER171      0.2116
    136  OG         3.5770   29.3850   62.1190 O.3   171  SER171     -0.2180
    137  N         -0.1590   35.3840   51.8370 N.3   208  PRO208     -0.2116
    138  CA        -1.0210   35.3000   50.6570 C.3   208  PRO208      0.1372
    139  C         -0.7990   36.4720   49.7140 C.2   208  PRO208      0.2244
    140  O         -0.5730   37.6100   50.1580 O.2   208  PRO208     -0.2868
    141  CB        -2.4240   35.2870   51.2500 C.3   208  PRO208      0.0268
    142  CG        -2.2610   36.1660   52.4640 C.3   208  PRO208      0.0207
    143  CD        -0.9380   35.6980   53.0450 C.3   208  PRO208      0.0892
@<TRIPOS>BOND
     1    73    72    2
     2    70    71    1
     3    72    71    1
     4    71    74    1
     5    76    78   ar
     6    76    75   ar
     7    78    79   ar
     8   139   140    2
     9   139   138    1
    10    74    75    1
    11    62    60    1
    12    75    77   ar
    13    58    57    2
    14   138   141    1
    15   138   137    1
    16    79    77   ar
    17    79    81   ar
    18   141   142    1
    19    66    65    2
    20    77    80   ar
    21    56    57    1
    22    56    59    1
    23    56    55    1
    24    57    63   am
    25    60    59    1
    26    60    61    1
    27   137   143    1
    28    81    83   ar
    29    65    64    1
    30   142   143    1
    31    63    64    1
    32    80    82   ar
    33    64    67    1
    34    83    82   ar
    35    67    69    1
    36    67    68    1
    37    47    46    2
    38   111   109   ar
    39   111   112   ar
    40   109   106   ar
    41   102   101    2
    42    46    45    1
    43   112   110   ar
    44    45    44    1
    45    45    48    1
    46   106   104   ar
    47   106   108   ar
    48   103   104    1
    49   103   100    1
    50   110   108   ar
    51   104   105   ar
    52   108   107   ar
    53   101   100    1
    54   101   113   am
    55    49    48    1
    56    49    50    1
    57   105   107   ar
    58   100    99    1
    59   125   124    2
    60   114   113    1
    61   114   117    1
    62   114   115    1
    63   126   127    1
    64   126   123    1
    65   122   115   am
    66   122   123    1
    67   117   118    1
    68    50    51    1
    69    91    89   am
    70   127   128    1
    71   115   116    2
    72    99    94   am
    73   123   124    1
    74   124   131   am
    75    90    89    2
    76    95    94    2
    77    89    88    1
    78    37    36    2
    79   120   119   ar
    80    51    52    2
    81   133   134    2
    82   133   132    1
    83    94    93    1
    84   118   119    1
    85   131   132    1
    86   128   129    1
    87    36    35    1
    88   132   135    1
    89   119   121   ar
    90   129   130    1
    91    34    35    1
    92    52    53    1
    93    52    54    1
    94    97    96    1
    95    97    98    1
    96    35    38    1
    97    88    85    1
    98    93    96    1
    99    93    92    1
   100    92    98    1
   101    92    86   am
   102    87    86    2
   103    86    85    1
   104   135   136    1
   105    85    84    1
   106    38    39    1
   107    39    40   ar
   108    39    41   ar
   109    40    42   ar
   110    41    43   ar
   111    42    43   ar
   112    17    16    1
   113    18    16    1
   114    16    13    1
   115    26    24    1
   116    24    25    1
   117    24    23    1
   118    13    12    1
   119    13    14    1
   120    12     3   am
   121    14    19   am
   122    14    15    2
   123     8    10   ar
   124     8     6   ar
   125     5     6    1
   126     5     2    1
   127    19    20    1
   128    23    20    1
   129    10    11   ar
   130     3     2    1
   131     3     4    2
   132     6     7   ar
   133    20    21    1
   134     1     2    1
   135    11     9   ar
   136     7     9   ar
   137    21    27   am
   138    21    22    2
   139    27    28    1
   140    28    29    1
   141    28    31    1
   142    33    31    1
   143    29    30    2
   144    31    32    1
