@<TRIPOS>MOLECULE
tmp/1emdA00.pdb
 124 112 0 0 0
SMALL
GASTEIGER

@<TRIPOS>ATOM
      1  N          5.1490   -5.8490    4.3790 N.3    12  ILE12      -0.1245
      2  CA         5.7500   -4.5450    4.6630 C.3    12  ILE12       0.1561
      3  C          6.4260   -3.9160    3.4210 C.2    12  ILE12       0.2260
      4  O          6.2270   -2.7350    3.1360 O.2    12  ILE12      -0.2867
      5  CB         6.7930   -4.6540    5.7880 C.3    12  ILE12       0.0252
      6  CG1        6.1120   -5.1480    7.0500 C.3    12  ILE12       0.0019
      7  CG2        7.4910   -3.2970    6.0300 C.3    12  ILE12       0.0019
      8  CD1        7.0720   -5.4080    8.1480 C.3    12  ILE12       0.0001
      9  N          7.4170  -13.0940    9.8770 N.3    80  ARG80      -0.1231
     10  CA         6.4910  -12.5590   10.9040 C.3    80  ARG80       0.1694
     11  C          6.2220  -13.5920   12.0230 C.2    80  ARG80       0.2591
     12  O          6.1880  -14.7960   11.7550 O.2    80  ARG80      -0.2718
     13  CB         5.1340  -12.1950   10.2910 C.3    80  ARG80       0.0321
     14  CG         5.1680  -11.2020    9.1630 C.3    80  ARG80       0.0489
     15  CD         3.7780  -10.5660    8.9080 C.3    80  ARG80       0.2205
     16  NE         3.4470  -10.5260    7.4930 N.pl3  80  ARG80      -0.0865
     17  CZ         2.2120  -10.5200    6.9940 C.cat  80  ARG80       0.5346
     18  NH1        1.2100   -9.9820    7.6830 N.pl3  80  ARG80       0.1354
     19  NH2        2.0220  -10.8550    5.7190 N.pl3  80  ARG80       0.1354
     20  N          5.8780  -13.1280   13.2260 N.am   81  ARG81      -0.1980
     21  CA         5.4830  -14.0670   14.2750 C.3    81  ARG81       0.1597
     22  C          4.0160  -14.4750   14.2070 C.2    81  ARG81       0.2287
     23  O          3.2250  -13.9010   13.4510 O.2    81  ARG81      -0.2864
     24  CB         5.8290  -13.5340   15.6700 C.3    81  ARG81       0.0334
     25  CG         5.1080  -12.2600   16.0930 C.3    81  ARG81       0.0492
     26  CD         5.5500  -11.8310   17.5170 C.3    81  ARG81       0.2205
     27  NE         5.1540  -10.4580   17.8350 N.pl3  81  ARG81      -0.0865
     28  CZ         4.3960  -10.0960   18.8650 C.cat  81  ARG81       0.5346
     29  NH1        4.0840  -10.9860   19.8060 N.pl3  81  ARG81       0.1354
     30  NH2        4.0300   -8.8210   19.0020 N.pl3  81  ARG81       0.1354
     31  N          8.4340  -11.4630   19.9380 N.3    87  ARG87      -0.1245
     32  CA         9.3780  -10.9820   18.9350 C.3    87  ARG87       0.1563
     33  C         10.7370  -11.6830   19.0090 C.2    87  ARG87       0.2260
     34  O         11.2650  -12.1280   17.9950 O.2    87  ARG87      -0.2867
     35  CB         9.5220   -9.4430   19.0280 C.3    87  ARG87       0.0307
     36  CG         8.1530   -8.7300   18.8690 C.3    87  ARG87       0.0489
     37  CD         8.2010   -7.3510   18.1810 C.3    87  ARG87       0.2205
     38  NE         7.8550   -6.2980   19.1150 N.pl3  87  ARG87      -0.0865
     39  CZ         6.6490   -6.1190   19.6580 C.cat  87  ARG87       0.5346
     40  NH1        6.5850   -6.0300   20.9760 N.pl3  87  ARG87       0.1354
     41  NH2        5.6920   -5.5060   18.9700 N.pl3  87  ARG87       0.1354
     42  N         11.5570  -14.8980   17.0990 N.3    90  LEU90      -0.1245
     43  CA        11.9420  -14.7790   15.6840 C.3    90  LEU90       0.1561
     44  C         13.4670  -14.8060   15.4470 C.2    90  LEU90       0.2260
     45  O         13.9170  -14.8420   14.3040 O.2    90  LEU90      -0.2867
     46  CB        11.3650  -13.4840   15.1290 C.3    90  LEU90       0.0270
     47  CG        10.1240  -13.4670   14.2390 C.3    90  LEU90       0.0019
     48  CD1        9.2750  -14.6940   14.4020 C.3    90  LEU90       0.0001
     49  CD2        9.3420  -12.2060   14.5340 C.3    90  LEU90       0.0001
     50  N         14.5400   -2.8780    9.9710 N.3   117  ILE117     -0.1245
     51  CA        13.1490   -3.0180   10.2910 C.3   117  ILE117      0.1561
     52  C         12.9390   -4.4650   10.7710 C.2   117  ILE117      0.2260
     53  O         12.2670   -4.6600   11.7610 O.2   117  ILE117     -0.2867
     54  CB        12.3380   -2.7570    9.0390 C.3   117  ILE117      0.0252
     55  CG1       12.2940   -1.2710    8.7160 C.3   117  ILE117      0.0019
     56  CG2       11.0140   -3.2820    9.1330 C.3   117  ILE117      0.0019
     57  CD1       11.7650   -1.0180    7.3090 C.3   117  ILE117      0.0001
     58  N         12.6560   -7.8290   12.6570 N.3   119  ASN119     -0.1240
     59  CA        12.5070   -8.2670   14.0530 C.3   119  ASN119      0.1653
     60  C         13.4300   -9.4390   14.4150 C.2   119  ASN119      0.2266
     61  O         13.4930  -10.3990   13.6640 O.2   119  ASN119     -0.2867
     62  CB        11.0620   -8.7180   14.2630 C.3   119  ASN119      0.1155
     63  CG        10.3650   -7.9010   15.2840 C.2   119  ASN119      0.2627
     64  OD1       10.7350   -7.9390   16.4420 O.2   119  ASN119     -0.2716
     65  ND2        9.5470   -6.9830   14.8440 N.am  119  ASN119     -0.0877
     66  N          7.0000    3.0320   14.2940 N.3   149  LEU149     -0.1245
     67  CA         5.6300    2.5250   14.4620 C.3   149  LEU149      0.1561
     68  C          5.1180    2.7530   15.8920 C.2   149  LEU149      0.2260
     69  O          3.9360    3.0160   16.0750 O.2   149  LEU149     -0.2867
     70  CB         5.5280    1.0320   14.0830 C.3   149  LEU149      0.0270
     71  CG         4.1380    0.3760   14.1320 C.3   149  LEU149      0.0019
     72  CD1        3.1330    1.1050   13.2770 C.3   149  LEU149      0.0001
     73  CD2        4.2550   -1.0870   13.6890 C.3   149  LEU149      0.0001
     74  N          1.6710    4.9460   16.5440 N.3   153  ARG153     -0.1245
     75  CA         0.7200    4.2440   17.4210 C.3   153  ARG153      0.1563
     76  C          0.3520    5.1090   18.6580 C.2   153  ARG153      0.2260
     77  O         -0.8250    5.3770   18.8930 O.2   153  ARG153     -0.2867
     78  CB         1.3400    2.9200   17.8880 C.3   153  ARG153      0.0307
     79  CG         1.0120    1.7300   16.9840 C.3   153  ARG153      0.0489
     80  CD         1.7820    0.4960   17.4270 C.3   153  ARG153      0.2205
     81  NE         1.4390   -0.6580   16.5940 N.pl3 153  ARG153     -0.0865
     82  CZ         2.1770   -1.7630   16.4960 C.cat 153  ARG153      0.5346
     83  NH1        3.2970   -1.8820   17.2080 N.pl3 153  ARG153      0.1354
     84  NH2        1.7980   -2.7320   15.6650 N.pl3 153  ARG153      0.1354
     85  N         12.3370   -1.6590   20.9920 N.3   177  HIS177     -0.1241
     86  CA        11.1060   -2.1460   20.3810 C.3   177  HIS177      0.1621
     87  C         10.7970   -3.5820   20.7790 C.2   177  HIS177      0.2264
     88  O         10.9830   -4.5230   20.0060 O.2   177  HIS177     -0.2867
     89  CB        11.1290   -2.0280   18.8540 C.3   177  HIS177      0.0745
     90  CG         9.8130   -2.3430   18.2210 C.ar  177  HIS177      0.0817
     91  ND1        8.7030   -1.5350   18.3710 N.ar  177  HIS177     -0.2268
     92  CD2        9.3840   -3.4320   17.5360 C.ar  177  HIS177      0.1154
     93  CE1        7.6520   -2.1090   17.8110 C.ar  177  HIS177      0.1986
     94  NE2        8.0370   -3.2650   17.3000 N.ar  177  HIS177     -0.2212
     95  N          1.5470   -4.4660   19.0700 N.3   210  GLY210     -0.1225
     96  CA         1.9910   -5.4560   18.0870 C.3   210  GLY210      0.1811
     97  C          1.3040   -6.8010   18.2320 C.2   210  GLY210      0.2280
     98  O          0.7310   -7.3340   17.2690 O.2   210  GLY210     -0.2866
     99  N         -1.3190   -9.0630   15.7530 N.3   214  VAL214     -0.1245
    100  CA        -1.0130  -10.4750   15.5210 C.3   214  VAL214      0.1561
    101  C         -2.2200  -11.3440   15.9180 C.2   214  VAL214      0.2260
    102  O         -2.7020  -12.1660   15.1190 O.2   214  VAL214     -0.2867
    103  CB         0.2450  -10.9020   16.3140 C.3   214  VAL214      0.0252
    104  CG1        0.3740  -12.4090   16.3100 C.3   214  VAL214      0.0019
    105  CG2        1.4990  -10.2680   15.7150 C.3   214  VAL214      0.0019
    106  N          1.5070  -10.2560   10.9410 N.3   222  SER222     -0.1202
    107  CA         1.5280   -9.1160   11.8400 C.3   222  SER222      0.2020
    108  C          1.2720   -7.8140   11.0810 C.2   222  SER222      0.2618
    109  O          0.7750   -7.8420    9.9590 O.2   222  SER222     -0.2717
    110  CB         2.8630   -9.0510   12.5760 C.3   222  SER222      0.2103
    111  OG         3.9540   -9.2960   11.7190 O.3   222  SER222     -0.2182
    112  N          1.6090   -6.6820   11.6980 N.am  223  ALA223     -0.1979
    113  CA         1.3220   -5.3510   11.1570 C.3   223  ALA223      0.1597
    114  C          2.1150   -5.1190    9.8940 C.2   223  ALA223      0.2287
    115  O          3.3480   -5.0950    9.9240 O.2   223  ALA223     -0.2864
    116  CB         1.7030   -4.2700   12.1820 C.3   223  ALA223      0.0319
    117  N          2.9380   -0.4880    9.3660 N.3   227  MET227     -0.1245
    118  CA         4.3930   -0.5080    9.4340 C.3   227  MET227      0.1570
    119  C          5.0170    0.0610    8.1650 C.2   227  MET227      0.2261
    120  O          6.0490    0.7390    8.2230 O.2   227  MET227     -0.2867
    121  CB         4.9360   -1.9140    9.6590 C.3   227  MET227      0.0387
    122  CG         6.4410   -1.9320    9.6100 C.3   227  MET227      0.0595
    123  SD         7.2570   -1.1070   11.0160 S.3   227  MET227     -0.1393
    124  CE         8.2710    0.0720   10.2910 C.3   227  MET227      0.0692
@<TRIPOS>BOND
     1     4     3    2
     2     3     2    1
     3     1     2    1
     4     2     5    1
     5    19    17    1
     6     5     7    1
     7     5     6    1
     8    17    16    2
     9    17    18    1
    10     6     8    1
    11    57    55    1
    12    16    15    1
    13   119   120    2
    14   119   118    1
    15    55    54    1
    16    15    14    1
    17    54    56    1
    18    54    51    1
    19    14    13    1
    20   117   118    1
    21   118   121    1
    22   122   121    1
    23   122   123    1
    24     9    10    1
    25   114   115    2
    26   114   113    1
    27   109   108    2
    28    50    51    1
    29   124   123    1
    30    51    52    1
    31    13    10    1
    32    52    53    2
    33    10    11    1
    34   106   107    1
    35   108   112   am
    36   108   107    1
    37   113   112    1
    38   113   116    1
    39   111   110    1
    40    12    11    2
    41   107   110    1
    42    11    20   am
    43    58    59    1
    44    20    21    1
    45    72    71    1
    46    23    22    2
    47    61    60    2
    48    73    71    1
    49    59    62    1
    50    59    60    1
    51    70    71    1
    52    70    67    1
    53    22    21    1
    54    47    48    1
    55    47    49    1
    56    47    46    1
    57    62    63    1
    58    21    24    1
    59    66    67    1
    60    45    44    2
    61    67    68    1
    62    65    63   am
    63   102   101    2
    64    46    43    1
    65    63    64    2
    66    44    43    1
    67   100    99    1
    68   100   101    1
    69   100   103    1
    70    84    82    1
    71    24    25    1
    72    43    42    1
    73   105   103    1
    74    68    69    2
    75    25    26    1
    76   104   103    1
    77    82    81    2
    78    82    83    1
    79    74    75    1
    80    81    80    1
    81    79    80    1
    82    79    78    1
    83    98    97    2
    84    94    92   ar
    85    94    93   ar
    86    75    78    1
    87    75    76    1
    88    26    27    1
    89    92    90   ar
    90    93    91   ar
    91    27    28    2
    92    34    33    2
    93    96    97    1
    94    96    95    1
    95    37    36    1
    96    37    38    1
    97    90    91   ar
    98    90    89    1
    99    76    77    2
   100    89    86    1
   101    28    30    1
   102    28    29    1
   103    36    35    1
   104    32    33    1
   105    32    35    1
   106    32    31    1
   107    41    39    1
   108    38    39    2
   109    39    40    1
   110    88    87    2
   111    86    87    1
   112    86    85    1
