@<TRIPOS>MOLECULE
tmp/1enuA00.pdb
 101 94 0 0 0
SMALL
GASTEIGER

@<TRIPOS>ATOM
      1  N          9.3420   12.0320   22.2240 N.3    92  ASP92      -0.1225
      2  CA        10.2300   13.0330   22.8080 C.3    92  ASP92       0.1805
      3  C          9.4560   13.7230   23.9450 C.2    92  ASP92       0.2598
      4  O          8.2610   13.4710   24.1280 O.2    92  ASP92      -0.2718
      5  CB        10.7450   14.0340   21.7530 C.3    92  ASP92       0.1424
      6  CG         9.6350   14.6850   20.9480 C.2    92  ASP92       0.3668
      7  OD1        8.5220   14.8830   21.4760 O.co2  92  ASP92      -0.2456
      8  OD2        9.8820   15.0130   19.7710 O.co2  92  ASP92      -0.2456
      9  N         10.1190   14.5750   24.7190 N.am   93  SER93      -0.1938
     10  CA         9.4520   15.2300   25.8410 C.3    93  SER93       0.2055
     11  C          8.5880   16.4320   25.4590 C.2    93  SER93       0.2643
     12  O          7.7290   16.8600   26.2380 O.2    93  SER93      -0.2714
     13  CB        10.4790   15.6530   26.8810 C.3    93  SER93       0.2130
     14  OG        11.2140   16.7750   26.4310 O.3    93  SER93      -0.2179
     15  N          8.8330   16.9870   24.2760 N.am   94  GLY94      -0.1954
     16  CA         8.0730   18.1370   23.8190 C.3    94  GLY94       0.1869
     17  C          8.7640   19.4650   24.0850 C.2    94  GLY94       0.2309
     18  O          8.4450   20.4670   23.4470 O.2    94  GLY94      -0.2863
     19  N         11.9560   20.4740   23.4570 N.3    96  TYR96      -0.1241
     20  CA        12.7670   20.9530   22.3390 C.3    96  TYR96       0.1605
     21  C         11.9430   21.6990   21.2970 C.2    96  TYR96       0.2264
     22  O         12.3550   22.7550   20.8230 O.2    96  TYR96      -0.2867
     23  CB        13.5110   19.7850   21.6820 C.3    96  TYR96       0.0534
     24  CG        14.3710   20.1660   20.4970 C.ar   96  TYR96      -0.0201
     25  CD1       15.6790   20.6180   20.6750 C.ar   96  TYR96      -0.0009
     26  CD2       13.8850   20.0540   19.1950 C.ar   96  TYR96      -0.0009
     27  CE1       16.4840   20.9470   19.5870 C.ar   96  TYR96       0.0417
     28  CE2       14.6780   20.3800   18.1030 C.ar   96  TYR96       0.0417
     29  CZ        15.9770   20.8260   18.3060 C.ar   96  TYR96       0.1957
     30  OH        16.7670   21.1610   17.2270 O.3    96  TYR96      -0.2866
     31  N         14.0010   17.6690   29.4730 N.3   146  ASP146     -0.1239
     32  CA        15.2450   18.3930   29.7060 C.3   146  ASP146      0.1674
     33  C         15.2350   19.7810   29.0770 C.2   146  ASP146      0.2266
     34  O         14.2010   20.2570   28.6070 O.2   146  ASP146     -0.2867
     35  CB        16.4330   17.5810   29.1530 C.3   146  ASP146      0.1410
     36  CG        16.4550   17.5170   27.6230 C.2   146  ASP146      0.3668
     37  OD1       15.3970   17.6730   26.9810 O.co2 146  ASP146     -0.2456
     38  OD2       17.5430   17.3130   27.0510 O.co2 146  ASP146     -0.2456
     39  N         17.4970   21.6270   26.2170 N.3   148  CYS148     -0.1235
     40  CA        18.5620   21.5960   25.2120 C.3   148  CYS148      0.1677
     41  C         19.2860   22.9370   25.2430 C.2   148  CYS148      0.2270
     42  O         18.6570   23.9990   25.2080 O.2   148  CYS148     -0.2867
     43  CB        17.9950   21.3340   23.8050 C.3   148  CYS148      0.0956
     44  SG        19.2480   21.1610   22.4800 S.3   148  CYS148     -0.0801
     45  N         18.7170   12.0390   29.3280 N.3   191  ILE191     -0.1245
     46  CA        19.4330   12.7690   28.2790 C.3   191  ILE191      0.1561
     47  C         20.6490   13.5270   28.7970 C.2   191  ILE191      0.2260
     48  O         20.5530   14.3690   29.6970 O.2   191  ILE191     -0.2867
     49  CB        18.5200   13.7750   27.5370 C.3   191  ILE191      0.0252
     50  CG1       17.2340   13.0890   27.0700 C.3   191  ILE191      0.0019
     51  CG2       19.2780   14.3840   26.3500 C.3   191  ILE191      0.0019
     52  CD1       16.2170   14.0270   26.4430 C.3   191  ILE191      0.0001
     53  N         23.5640   16.2150   28.7550 N.3   193  GLN193     -0.1245
     54  CA        23.7390   17.5790   28.2620 C.3   193  GLN193      0.1566
     55  C         25.1680   18.0030   28.6000 C.2   193  GLN193      0.2260
     56  O         25.9800   17.1730   29.0170 O.2   193  GLN193     -0.2867
     57  CB        22.7190   18.5250   28.9090 C.3   193  GLN193      0.0367
     58  CG        21.2850   18.3070   28.4440 C.3   193  GLN193      0.0905
     59  CD        21.0880   18.6250   26.9650 C.2   193  GLN193      0.2608
     60  OE1       21.8490   19.3840   26.3670 O.2   193  GLN193     -0.2717
     61  NE2       20.0670   18.0340   26.3690 N.am  193  GLN193     -0.0878
     62  N         22.2110   14.4380   24.2330 N.3   219  GLY219     -0.1210
     63  CA        21.5130   15.6330   23.7970 C.3   219  GLY219      0.1956
     64  C         22.4580   16.8030   23.5720 C.2   219  GLY219      0.2612
     65  O         23.6750   16.7030   23.7940 O.2   219  GLY219     -0.2717
     66  N         21.9000   17.8920   23.0550 N.am  220  GLY220     -0.1942
     67  CA        22.6820   19.0960   22.8280 C.3   220  GLY220      0.2014
     68  C         23.5460   19.1100   21.5900 C.2   220  GLY220      0.2639
     69  O         24.4270   19.9550   21.4660 O.2   220  GLY220     -0.2714
     70  N         23.3190   18.1650   20.6820 N.am  221  LEU221     -0.1963
     71  CA        24.0940   18.1080   19.4530 C.3   221  LEU221      0.1728
     72  C         23.1620   18.2330   18.2600 C.2   221  LEU221      0.2616
     73  O         21.9450   18.1820   18.4160 O.2   221  LEU221     -0.2715
     74  CB        24.9270   16.8270   19.3850 C.3   221  LEU221      0.0311
     75  CG        26.0090   16.7080   20.4590 C.3   221  LEU221      0.0022
     76  CD1       26.7210   15.3690   20.3420 C.3   221  LEU221      0.0001
     77  CD2       26.9980   17.8500   20.3270 C.3   221  LEU221      0.0001
     78  N         23.7420   18.3920   17.0720 N.am  222  ALA222     -0.1963
     79  CA        22.9800   18.5700   15.8390 C.3   222  ALA222      0.1728
     80  C         22.1850   19.8660   15.9810 C.2   222  ALA222      0.2616
     81  O         21.0220   19.9520   15.5780 O.2   222  ALA222     -0.2715
     82  CB        22.0500   17.3830   15.5970 C.3   222  ALA222      0.0334
     83  N         22.8280   20.8570   16.6040 N.am  223  VAL223     -0.1977
     84  CA        22.2310   22.1740   16.8410 C.3   223  VAL223      0.1596
     85  C         23.0750   23.3220   16.2710 C.2   223  VAL223      0.2287
     86  O         22.9850   24.4630   16.7280 O.2   223  VAL223     -0.2864
     87  CB        21.9470   22.4190   18.3570 C.3   223  VAL223      0.0276
     88  CG1       20.8820   21.4450   18.8610 C.3   223  VAL223      0.0022
     89  CG2       23.2160   22.2880   19.1770 C.3   223  VAL223      0.0022
     90  N         20.0070   12.0770   19.5080 N.3   250  MET250     -0.1230
     91  CA        18.8090   12.7910   19.0890 C.3   250  MET250      0.1702
     92  C         18.9910   13.7650   17.9350 C.2   250  MET250      0.2592
     93  O         19.9780   14.4940   17.8800 O.2   250  MET250     -0.2718
     94  CB        18.2140   13.5200   20.2900 C.3   250  MET250      0.0401
     95  CG        18.0990   12.6460   21.5290 C.3   250  MET250      0.0596
     96  SD        17.3490   13.5030   22.9080 S.3   250  MET250     -0.1393
     97  CE        15.6910   13.3250   22.4780 C.3   250  MET250      0.0692
     98  N         18.0390   13.7400   17.0050 N.am  251  GLY251     -0.1957
     99  CA        18.0560   14.6340   15.8580 C.3   251  GLY251      0.1869
    100  C         19.2280   14.5230   14.8960 C.2   251  GLY251      0.2309
    101  O         19.6160   15.5140   14.2720 O.2   251  GLY251     -0.2863
@<TRIPOS>BOND
     1   101   100    2
     2   100    99    1
     3    81    80    2
     4    82    79    1
     5    79    80    1
     6    79    78    1
     7    99    98    1
     8    80    83   am
     9    85    86    2
    10    85    84    1
    11    83    84    1
    12    84    87    1
    13    98    92   am
    14    78    72   am
    15    30    29    1
    16    93    92    2
    17    92    91    1
    18    28    29   ar
    19    28    26   ar
    20    72    73    2
    21    72    71    1
    22    29    27   ar
    23    87    88    1
    24    87    89    1
    25    91    90    1
    26    91    94    1
    27    26    24   ar
    28    74    71    1
    29    74    75    1
    30    71    70    1
    31    27    25   ar
    32     8     6   ar
    33    94    95    1
    34    77    75    1
    35    76    75    1
    36    24    25   ar
    37    24    23    1
    38    70    68   am
    39    22    21    2
    40     6     7   ar
    41     6     5    1
    42    21    20    1
    43    69    68    2
    44    95    96    1
    45    68    67    1
    46    23    20    1
    47     5     2    1
    48     1     2    1
    49    20    19    1
    50    97    96    1
    51    44    43    1
    52     2     3    1
    53    67    66    1
    54    66    64   am
    55    18    17    2
    56    64    65    2
    57    64    63    1
    58    63    62    1
    59    43    40    1
    60    16    17    1
    61    16    15    1
    62     3     4    2
    63     3     9   am
    64    15    11   am
    65     9    10    1
    66    42    41    2
    67    40    41    1
    68    40    39    1
    69    11    10    1
    70    11    12    2
    71    10    13    1
    72    51    49    1
    73    60    59    2
    74    61    59   am
    75    14    13    1
    76    52    50    1
    77    59    58    1
    78    37    36   ar
    79    38    36   ar
    80    50    49    1
    81    49    46    1
    82    36    35    1
    83    54    55    1
    84    54    53    1
    85    54    57    1
    86    46    47    1
    87    46    45    1
    88    58    57    1
    89    55    56    2
    90    34    33    2
    91    47    48    2
    92    33    32    1
    93    35    32    1
    94    31    32    1
