@<TRIPOS>MOLECULE
tmp/1eobB00.pdb
 105 102 0 0 0
SMALL
GASTEIGER

@<TRIPOS>ATOM
      1  N         17.8120  -15.7110   31.5070 N.3    22  TYR22      -0.1241
      2  CA        17.2810  -15.9060   32.8490 C.3    22  TYR22       0.1605
      3  C         18.3690  -16.7450   33.5080 C.2    22  TYR22       0.2264
      4  O         18.3370  -17.9770   33.4790 O.2    22  TYR22      -0.2867
      5  CB        15.9430  -16.6440   32.7850 C.3    22  TYR22       0.0534
      6  CG        15.3700  -17.0510   34.1260 C.ar   22  TYR22      -0.0201
      7  CD1       15.4610  -16.2140   35.2400 C.ar   22  TYR22      -0.0009
      8  CD2       14.6970  -18.2620   34.2690 C.ar   22  TYR22      -0.0009
      9  CE1       14.8930  -16.5790   36.4610 C.ar   22  TYR22       0.0417
     10  CE2       14.1240  -18.6340   35.4810 C.ar   22  TYR22       0.0417
     11  CZ        14.2250  -17.7940   36.5670 C.ar   22  TYR22       0.1957
     12  OH        13.6530  -18.1760   37.7510 O.3    22  TYR22      -0.2866
     13  N         19.5520  -17.9550   36.5170 N.3    24  THR24      -0.1218
     14  CA        19.4830  -19.1500   37.3400 C.3    24  THR24       0.1862
     15  C         19.0970  -20.4150   36.5810 C.2    24  THR24       0.2287
     16  O         19.2290  -21.5120   37.1150 O.2    24  THR24      -0.2866
     17  CB        18.5320  -18.9630   38.5420 C.3    24  THR24       0.1770
     18  OG1       17.2680  -18.4700   38.0910 O.3    24  THR24      -0.2211
     19  CG2       19.1260  -17.9860   39.5330 C.3    24  THR24       0.0375
     20  N          7.2560   -9.3770   49.0630 N.3   106  TYR106     -0.1241
     21  CA         6.7080  -10.6950   49.3470 C.3   106  TYR106      0.1605
     22  C          6.8070  -10.9840   50.8340 C.2   106  TYR106      0.2264
     23  O          7.7520  -10.5570   51.4880 O.2   106  TYR106     -0.2867
     24  CB         7.4930  -11.7660   48.5880 C.3   106  TYR106      0.0534
     25  CG         7.1370  -11.9220   47.1200 C.ar  106  TYR106     -0.0201
     26  CD1        6.0480  -12.7020   46.7300 C.ar  106  TYR106     -0.0009
     27  CD2        7.9100  -11.3200   46.1220 C.ar  106  TYR106     -0.0009
     28  CE1        5.7380  -12.8890   45.3890 C.ar  106  TYR106      0.0417
     29  CE2        7.6080  -11.4990   44.7710 C.ar  106  TYR106      0.0417
     30  CZ         6.5220  -12.2880   44.4150 C.ar  106  TYR106      0.1957
     31  OH         6.2250  -12.4950   43.0950 O.3   106  TYR106     -0.2866
     32  N          8.4590   -5.9900   41.0910 N.3   145  TYR145     -0.1241
     33  CA         9.4660   -6.5100   42.0170 C.3   145  TYR145      0.1605
     34  C         10.9020   -6.4320   41.5000 C.2   145  TYR145      0.2264
     35  O         11.2210   -7.0140   40.4640 O.2   145  TYR145     -0.2867
     36  CB         9.1360   -7.9710   42.3420 C.3   145  TYR145      0.0534
     37  CG        10.0380   -8.5750   43.3840 C.ar  145  TYR145     -0.0201
     38  CD1        9.9210   -8.2060   44.7250 C.ar  145  TYR145     -0.0009
     39  CD2       11.0450   -9.4770   43.0310 C.ar  145  TYR145     -0.0009
     40  CE1       10.7870   -8.7110   45.6950 C.ar  145  TYR145      0.0417
     41  CE2       11.9230   -9.9930   43.9980 C.ar  145  TYR145      0.0417
     42  CZ        11.7860   -9.5990   45.3280 C.ar  145  TYR145      0.1957
     43  OH        12.6500  -10.0700   46.2880 O.3   145  TYR145     -0.2866
     44  N         14.6910   -7.4550   41.2960 N.3   147  TRP147     -0.1241
     45  CA        15.3980   -8.6880   41.6110 C.3   147  TRP147      0.1605
     46  C         16.7540   -8.6860   40.9290 C.2   147  TRP147      0.2264
     47  O         16.9960   -7.8940   40.0220 O.2   147  TRP147     -0.2867
     48  CB        14.5880   -9.9080   41.1600 C.3   147  TRP147      0.0550
     49  CG        14.3010   -9.9730   39.6810 C.ar  147  TRP147      0.0003
     50  CD1       13.6430   -9.0390   38.9240 C.ar  147  TRP147      0.0946
     51  CD2       14.6130  -11.0580   38.7910 C.ar  147  TRP147      0.0152
     52  NE1       13.5250   -9.4770   37.6280 N.ar  147  TRP147     -0.2442
     53  CE2       14.1100  -10.7110   37.5170 C.ar  147  TRP147      0.0810
     54  CE3       15.2680  -12.2880   38.9490 C.ar  147  TRP147      0.0012
     55  CZ2       14.2400  -11.5540   36.4060 C.ar  147  TRP147      0.0191
     56  CZ3       15.3970  -13.1230   37.8440 C.ar  147  TRP147      0.0001
     57  CH2       14.8840  -12.7510   36.5890 C.ar  147  TRP147      0.0015
     58  N         10.6900   -7.2450   37.8420 N.3   155  ARG155     -0.1245
     59  CA         9.5890   -8.0790   37.3800 C.3   155  ARG155      0.1563
     60  C          8.3810   -7.1750   37.2270 C.2   155  ARG155      0.2260
     61  O          8.1600   -6.2810   38.0440 O.2   155  ARG155     -0.2867
     62  CB         9.2050   -9.1610   38.4050 C.3   155  ARG155      0.0307
     63  CG        10.2350  -10.2260   38.7190 C.3   155  ARG155      0.0489
     64  CD        10.7320  -10.9400   37.4780 C.3   155  ARG155      0.2205
     65  NE         9.6900  -11.3310   36.5280 N.pl3 155  ARG155     -0.0865
     66  CZ         8.6900  -12.1760   36.7690 C.cat 155  ARG155      0.5346
     67  NH1        8.5460  -12.7530   37.9600 N.pl3 155  ARG155      0.1354
     68  NH2        7.8420  -12.4710   35.7880 N.pl3 155  ARG155      0.1354
     69  N          2.8530   -9.0100   38.8900 N.3   158  HIS158     -0.1241
     70  CA         2.3740  -10.3240   38.4760 C.3   158  HIS158      0.1621
     71  C          1.8500  -11.1630   39.6240 C.2   158  HIS158      0.2264
     72  O          2.1910  -10.9490   40.7870 O.2   158  HIS158     -0.2867
     73  CB         3.5010  -11.1030   37.8060 C.3   158  HIS158      0.0745
     74  CG         4.6370  -11.4030   38.7270 C.ar  158  HIS158      0.0817
     75  ND1        5.5030  -10.4300   39.1760 N.ar  158  HIS158     -0.2268
     76  CD2        5.0010  -12.5480   39.3520 C.ar  158  HIS158      0.1154
     77  CE1        6.3490  -10.9610   40.0390 C.ar  158  HIS158      0.1986
     78  NE2        6.0670  -12.2450   40.1640 N.ar  158  HIS158     -0.2212
     79  N          1.3560  -15.2400   40.7450 N.3   160  HIS160     -0.1241
     80  CA         1.7450  -16.6210   40.5200 C.3   160  HIS160      0.1621
     81  C          0.5210  -17.5140   40.6570 C.2   160  HIS160      0.2264
     82  O         -0.2800  -17.3270   41.5650 O.2   160  HIS160     -0.2867
     83  CB         2.7760  -17.0410   41.5640 C.3   160  HIS160      0.0745
     84  CG         4.1030  -16.3690   41.4160 C.ar  160  HIS160      0.0817
     85  ND1        5.1090  -16.8770   40.6230 N.ar  160  HIS160     -0.2268
     86  CD2        4.5790  -15.2090   41.9300 C.ar  160  HIS160      0.1154
     87  CE1        6.1460  -16.0590   40.6530 C.ar  160  HIS160      0.1986
     88  NE2        5.8500  -15.0380   41.4380 N.ar  160  HIS160     -0.2212
     89  N          2.5860  -17.6590   35.6380 N.3   175  GLN175     -0.1245
     90  CA         2.3840  -16.3180   36.1570 C.3   175  GLN175      0.1566
     91  C          1.5910  -15.5060   35.1460 C.2   175  GLN175      0.2260
     92  O          1.7540  -15.6880   33.9450 O.2   175  GLN175     -0.2867
     93  CB         3.7330  -15.6280   36.3620 C.3   175  GLN175      0.0367
     94  CG         4.6960  -16.3570   37.2610 C.3   175  GLN175      0.0905
     95  CD         6.0690  -15.7230   37.2640 C.2   175  GLN175      0.2608
     96  OE1        6.2040  -14.4930   37.3370 O.2   175  GLN175     -0.2717
     97  NE2        7.1010  -16.5540   37.1960 N.am  175  GLN175     -0.0878
     98  N         12.3170  -13.1490   32.2570 N.3   189  ILE189     -0.1245
     99  CA        11.5570  -14.3690   32.5370 C.3   189  ILE189      0.1561
    100  C         10.4260  -14.5450   31.5300 C.2   189  ILE189      0.2260
    101  O         10.2280  -15.6390   31.0000 O.2   189  ILE189     -0.2867
    102  CB        10.9710  -14.3730   33.9770 C.3   189  ILE189      0.0252
    103  CG1       12.1070  -14.5370   34.9920 C.3   189  ILE189      0.0019
    104  CG2        9.9530  -15.5150   34.1370 C.3   189  ILE189      0.0019
    105  CD1       11.6410  -14.6140   36.4260 C.3   189  ILE189      0.0001
@<TRIPOS>BOND
     1   101   100    2
     2     1     2    1
     3   100    99    1
     4    98    99    1
     5    99   102    1
     6     5     2    1
     7     5     6    1
     8     2     3    1
     9     4     3    2
    10    92    91    2
    11   102   104    1
    12   102   103    1
    13     6     8   ar
    14     6     7   ar
    15     8    10   ar
    16   103   105    1
    17    91    90    1
    18     7     9   ar
    19    10    11   ar
    20    89    90    1
    21    68    66    1
    22    90    93    1
    23    93    94    1
    24    55    57   ar
    25    55    53   ar
    26     9    11   ar
    27    13    14    1
    28    65    66    2
    29    65    64    1
    30    11    12    1
    31    15    16    2
    32    15    14    1
    33    57    56   ar
    34    66    67    1
    35    97    95   am
    36    60    59    1
    37    60    61    2
    38    94    95    1
    39    95    96    2
    40    14    17    1
    41    59    58    1
    42    59    62    1
    43    64    63    1
    44    53    52   ar
    45    53    51   ar
    46    52    50   ar
    47    73    70    1
    48    73    74    1
    49    56    54   ar
    50    18    17    1
    51    62    63    1
    52    70    69    1
    53    70    71    1
    54    17    19    1
    55    74    75   ar
    56    74    76   ar
    57    51    54   ar
    58    51    49   ar
    59    50    49   ar
    60    75    77   ar
    61    76    78   ar
    62    71    72    2
    63    49    48    1
    64    47    46    2
    65    77    78   ar
    66    35    34    2
    67    80    81    1
    68    80    79    1
    69    80    83    1
    70    85    87   ar
    71    85    84   ar
    72    87    88   ar
    73    81    82    2
    74    46    45    1
    75    32    33    1
    76    48    45    1
    77    44    45    1
    78    84    83    1
    79    84    86   ar
    80    88    86   ar
    81    34    33    1
    82    33    36    1
    83    36    37    1
    84    39    37   ar
    85    39    41   ar
    86    31    30    1
    87    37    38   ar
    88    41    42   ar
    89    30    29   ar
    90    30    28   ar
    91    38    40   ar
    92    29    27   ar
    93    42    40   ar
    94    42    43    1
    95    28    26   ar
    96    27    25   ar
    97    26    25   ar
    98    25    24    1
    99    24    21    1
   100    20    21    1
   101    21    22    1
   102    22    23    2
