@<TRIPOS>MOLECULE
tmp/1eocB00.pdb
 105 102 0 0 0
SMALL
GASTEIGER

@<TRIPOS>ATOM
      1  N         17.8980  -15.7190   31.4780 N.3    22  TYR22      -0.1241
      2  CA        17.3690  -15.9280   32.8180 C.3    22  TYR22       0.1605
      3  C         18.4550  -16.7660   33.4780 C.2    22  TYR22       0.2264
      4  O         18.4350  -17.9980   33.4260 O.2    22  TYR22      -0.2867
      5  CB        16.0410  -16.6800   32.7390 C.3    22  TYR22       0.0534
      6  CG        15.4460  -17.0820   34.0720 C.ar   22  TYR22      -0.0201
      7  CD1       15.5600  -16.2610   35.2050 C.ar   22  TYR22      -0.0009
      8  CD2       14.7250  -18.2680   34.1910 C.ar   22  TYR22      -0.0009
      9  CE1       14.9620  -16.6220   36.4200 C.ar   22  TYR22       0.0417
     10  CE2       14.1270  -18.6320   35.3960 C.ar   22  TYR22       0.0417
     11  CZ        14.2480  -17.8110   36.4960 C.ar   22  TYR22       0.1957
     12  OH        13.6430  -18.1910   37.6620 O.3    22  TYR22      -0.2866
     13  N         19.5350  -17.9320   36.5010 N.3    24  THR24      -0.1218
     14  CA        19.4200  -19.1060   37.3540 C.3    24  THR24       0.1862
     15  C         19.0670  -20.3900   36.6120 C.2    24  THR24       0.2287
     16  O         19.2260  -21.4760   37.1600 O.2    24  THR24      -0.2866
     17  CB        18.4040  -18.8810   38.4990 C.3    24  THR24       0.1770
     18  OG1       17.1410  -18.4960   37.9550 O.3    24  THR24      -0.2211
     19  CG2       18.8920  -17.7910   39.4210 C.3    24  THR24       0.0375
     20  N          7.2520   -9.3590   49.1890 N.3   106  TYR106     -0.1241
     21  CA         6.7080  -10.6860   49.4690 C.3   106  TYR106      0.1605
     22  C          6.7980  -11.0060   50.9530 C.2   106  TYR106      0.2264
     23  O          7.7420  -10.5960   51.6210 O.2   106  TYR106     -0.2867
     24  CB         7.5010  -11.7510   48.7010 C.3   106  TYR106      0.0534
     25  CG         7.1600  -11.8850   47.2330 C.ar  106  TYR106     -0.0201
     26  CD1        6.0990  -12.6910   46.8180 C.ar  106  TYR106     -0.0009
     27  CD2        7.9170  -11.2340   46.2550 C.ar  106  TYR106     -0.0009
     28  CE1        5.7970  -12.8510   45.4680 C.ar  106  TYR106      0.0417
     29  CE2        7.6250  -11.3870   44.8980 C.ar  106  TYR106      0.0417
     30  CZ         6.5650  -12.1980   44.5160 C.ar  106  TYR106      0.1957
     31  OH         6.2710  -12.3700   43.1860 O.3   106  TYR106     -0.2866
     32  N          8.4880   -5.9530   41.1980 N.3   145  TYR145     -0.1241
     33  CA         9.4810   -6.4490   42.1430 C.3   145  TYR145      0.1605
     34  C         10.9190   -6.4210   41.5990 C.2   145  TYR145      0.2264
     35  O         11.2000   -6.9930   40.5490 O.2   145  TYR145     -0.2867
     36  CB         9.1210   -7.8940   42.5320 C.3   145  TYR145      0.0534
     37  CG        10.0430   -8.5130   43.5600 C.ar  145  TYR145     -0.0201
     38  CD1        9.9000   -8.2220   44.9170 C.ar  145  TYR145     -0.0009
     39  CD2       11.0870   -9.3530   43.1760 C.ar  145  TYR145     -0.0009
     40  CE1       10.7730   -8.7440   45.8690 C.ar  145  TYR145      0.0417
     41  CE2       11.9740   -9.8830   44.1260 C.ar  145  TYR145      0.0417
     42  CZ        11.8080   -9.5730   45.4660 C.ar  145  TYR145      0.1957
     43  OH        12.6780  -10.0800   46.4090 O.3   145  TYR145     -0.2866
     44  N         14.7290   -7.5390   41.3570 N.3   147  TRP147     -0.1241
     45  CA        15.4290   -8.7830   41.6570 C.3   147  TRP147      0.1605
     46  C         16.7760   -8.7980   40.9530 C.2   147  TRP147      0.2264
     47  O         17.0170   -8.0130   40.0360 O.2   147  TRP147     -0.2867
     48  CB        14.5980   -9.9900   41.2160 C.3   147  TRP147      0.0550
     49  CG        14.3000  -10.0360   39.7420 C.ar  147  TRP147      0.0003
     50  CD1       13.6260   -9.0990   39.0110 C.ar  147  TRP147      0.0946
     51  CD2       14.6310  -11.0930   38.8280 C.ar  147  TRP147      0.0152
     52  NE1       13.5150   -9.5060   37.7030 N.ar  147  TRP147     -0.2442
     53  CE2       14.1220  -10.7280   37.5640 C.ar  147  TRP147      0.0810
     54  CE3       15.3070  -12.3160   38.9590 C.ar  147  TRP147      0.0012
     55  CZ2       14.2650  -11.5420   36.4340 C.ar  147  TRP147      0.0191
     56  CZ3       15.4470  -13.1240   37.8360 C.ar  147  TRP147      0.0001
     57  CH2       14.9300  -12.7330   36.5920 C.ar  147  TRP147      0.0015
     58  N         10.6600   -7.3100   37.9100 N.3   155  ARG155     -0.1245
     59  CA         9.5610   -8.1380   37.4390 C.3   155  ARG155      0.1563
     60  C          8.3620   -7.2050   37.2990 C.2   155  ARG155      0.2260
     61  O          8.1400   -6.3260   38.1380 O.2   155  ARG155     -0.2867
     62  CB         9.1630   -9.2080   38.4690 C.3   155  ARG155      0.0307
     63  CG        10.1640  -10.2980   38.7860 C.3   155  ARG155      0.0489
     64  CD        10.6890  -11.0100   37.5450 C.3   155  ARG155      0.2205
     65  NE         9.6830  -11.3320   36.5370 N.pl3 155  ARG155     -0.0865
     66  CZ         8.6370  -12.1370   36.7130 C.cat 155  ARG155      0.5346
     67  NH1        8.4110  -12.7180   37.8860 N.pl3 155  ARG155      0.1354
     68  NH2        7.8310  -12.3870   35.6910 N.pl3 155  ARG155      0.1354
     69  N          2.8900   -9.0210   38.9650 N.3   158  HIS158     -0.1241
     70  CA         2.4420  -10.3450   38.5550 C.3   158  HIS158      0.1621
     71  C          1.8740  -11.1840   39.6850 C.2   158  HIS158      0.2264
     72  O          2.1830  -10.9800   40.8600 O.2   158  HIS158     -0.2867
     73  CB         3.5970  -11.1240   37.9280 C.3   158  HIS158      0.0745
     74  CG         4.7080  -11.4070   38.8880 C.ar  158  HIS158      0.0817
     75  ND1        5.5700  -10.4310   39.3360 N.ar  158  HIS158     -0.2268
     76  CD2        5.0520  -12.5420   39.5400 C.ar  158  HIS158      0.1154
     77  CE1        6.3990  -10.9520   40.2220 C.ar  158  HIS158      0.1986
     78  NE2        6.1040  -12.2320   40.3640 N.ar  158  HIS158     -0.2212
     79  N          1.3910  -15.2310   40.7170 N.3   160  HIS160     -0.1241
     80  CA         1.7940  -16.6070   40.4780 C.3   160  HIS160      0.1621
     81  C          0.5640  -17.4900   40.6220 C.2   160  HIS160      0.2264
     82  O         -0.2230  -17.2970   41.5430 O.2   160  HIS160     -0.2867
     83  CB         2.8160  -17.0380   41.5260 C.3   160  HIS160      0.0745
     84  CG         4.1360  -16.3430   41.4120 C.ar  160  HIS160      0.0817
     85  ND1        5.1450  -16.7950   40.5900 N.ar  160  HIS160     -0.2268
     86  CD2        4.6040  -15.2170   41.9990 C.ar  160  HIS160      0.1154
     87  CE1        6.1780  -15.9760   40.6730 C.ar  160  HIS160      0.1986
     88  NE2        5.8780  -15.0080   41.5210 N.ar  160  HIS160     -0.2212
     89  N          2.5000  -17.7110   35.5580 N.3   175  GLN175     -0.1245
     90  CA         2.2770  -16.3690   36.0860 C.3   175  GLN175      0.1566
     91  C          1.4590  -15.5340   35.1100 C.2   175  GLN175      0.2260
     92  O          1.5590  -15.7240   33.9030 O.2   175  GLN175     -0.2867
     93  CB         3.6130  -15.6540   36.2850 C.3   175  GLN175      0.0367
     94  CG         4.5720  -16.3110   37.2370 C.3   175  GLN175      0.0905
     95  CD         5.9340  -15.6430   37.2250 C.2   175  GLN175      0.2608
     96  OE1        6.0430  -14.4110   37.1670 O.2   175  GLN175     -0.2717
     97  NE2        6.9820  -16.4480   37.3060 N.am  175  GLN175     -0.0878
     98  N         12.2530  -13.1750   32.2680 N.3   189  ILE189     -0.1245
     99  CA        11.4940  -14.3920   32.5410 C.3   189  ILE189      0.1561
    100  C         10.3710  -14.5620   31.5320 C.2   189  ILE189      0.2260
    101  O         10.1790  -15.6460   30.9780 O.2   189  ILE189     -0.2867
    102  CB        10.9270  -14.3910   33.9770 C.3   189  ILE189      0.0252
    103  CG1       12.0910  -14.4840   34.9740 C.3   189  ILE189      0.0019
    104  CG2        9.9390  -15.5500   34.1650 C.3   189  ILE189      0.0019
    105  CD1       11.6680  -14.5080   36.4360 C.3   189  ILE189      0.0001
@<TRIPOS>BOND
     1   101   100    2
     2     1     2    1
     3   100    99    1
     4    98    99    1
     5    99   102    1
     6     5     2    1
     7     5     6    1
     8     2     3    1
     9     4     3    2
    10    92    91    2
    11   102   104    1
    12   102   103    1
    13     6     8   ar
    14     6     7   ar
    15     8    10   ar
    16   103   105    1
    17    91    90    1
    18     7     9   ar
    19    10    11   ar
    20    89    90    1
    21    68    66    1
    22    90    93    1
    23    93    94    1
    24     9    11   ar
    25    55    57   ar
    26    55    53   ar
    27    11    12    1
    28    13    14    1
    29    65    66    2
    30    65    64    1
    31    57    56   ar
    32    15    16    2
    33    15    14    1
    34    66    67    1
    35    96    95    2
    36    95    94    1
    37    95    97   am
    38    60    59    1
    39    60    61    2
    40    14    17    1
    41    59    58    1
    42    59    62    1
    43    64    63    1
    44    53    52   ar
    45    53    51   ar
    46    52    50   ar
    47    56    54   ar
    48    73    70    1
    49    73    74    1
    50    18    17    1
    51    62    63    1
    52    17    19    1
    53    70    69    1
    54    70    71    1
    55    51    54   ar
    56    51    49   ar
    57    74    75   ar
    58    74    76   ar
    59    50    49   ar
    60    75    77   ar
    61    76    78   ar
    62    71    72    2
    63    49    48    1
    64    47    46    2
    65    77    78   ar
    66    80    81    1
    67    80    79    1
    68    80    83    1
    69    35    34    2
    70    85    87   ar
    71    85    84   ar
    72    81    82    2
    73    87    88   ar
    74    46    45    1
    75    32    33    1
    76    48    45    1
    77    44    45    1
    78    84    83    1
    79    84    86   ar
    80    88    86   ar
    81    34    33    1
    82    33    36    1
    83    36    37    1
    84    39    37   ar
    85    39    41   ar
    86    31    30    1
    87    37    38   ar
    88    41    42   ar
    89    30    29   ar
    90    30    28   ar
    91    29    27   ar
    92    38    40   ar
    93    42    40   ar
    94    42    43    1
    95    28    26   ar
    96    27    25   ar
    97    26    25   ar
    98    25    24    1
    99    24    21    1
   100    20    21    1
   101    21    22    1
   102    22    23    2
