@<TRIPOS>MOLECULE
tmp/1eomA00.pdb
 227 215 0 0 0
SMALL
GASTEIGER

@<TRIPOS>ATOM
      1  N         -6.2390   75.7770   11.6620 N.3     7  TYR7       -0.1241
      2  CA        -6.9040   76.8350   12.3930 C.3     7  TYR7        0.1605
      3  C         -5.8850   77.3120   13.4170 C.2     7  TYR7        0.2264
      4  O         -5.1730   76.4960   14.0260 O.2     7  TYR7       -0.2867
      5  CB        -8.1490   76.2990   13.1390 C.3     7  TYR7        0.0534
      6  CG        -9.4090   76.2950   12.3160 C.ar    7  TYR7       -0.0201
      7  CD1       -9.6910   75.2640   11.4210 C.ar    7  TYR7       -0.0009
      8  CD2      -10.3120   77.3590   12.4080 C.ar    7  TYR7       -0.0009
      9  CE1      -10.8590   75.2960   10.6230 C.ar    7  TYR7        0.0417
     10  CE2      -11.4620   77.4040   11.6350 C.ar    7  TYR7        0.0417
     11  CZ       -11.7340   76.3780   10.7380 C.ar    7  TYR7        0.1957
     12  OH       -12.8570   76.5000    9.9290 O.3     7  TYR7       -0.2866
     13  N         -6.1930   79.6360   16.6240 N.3     9  ILE9       -0.1245
     14  CA        -7.0460   80.4770   17.4280 C.3     9  ILE9        0.1561
     15  C         -6.1040   81.4030   18.1830 C.2     9  ILE9        0.2260
     16  O         -5.1080   80.9990   18.8180 O.2     9  ILE9       -0.2867
     17  CB        -7.9380   79.6470   18.3500 C.3     9  ILE9        0.0252
     18  CG1       -8.8640   80.5870   19.1130 C.3     9  ILE9        0.0019
     19  CG2       -7.0820   78.7210   19.2570 C.3     9  ILE9        0.0019
     20  CD1      -10.0130   79.8710   19.8050 C.3     9  ILE9        0.0001
     21  N         -6.3560   83.1780   20.8620 N.3    11  ASP11      -0.1225
     22  CA        -6.6640   83.5140   22.2580 C.3    11  ASP11       0.1805
     23  C         -5.5130   83.3710   23.2340 C.2    11  ASP11       0.2598
     24  O         -5.7480   83.2840   24.4310 O.2    11  ASP11      -0.2718
     25  CB        -7.8620   82.6910   22.7920 C.3    11  ASP11       0.1424
     26  CG        -7.6150   81.2050   22.7500 C.2    11  ASP11       0.3668
     27  OD1       -6.4830   80.8100   22.4540 O.co2  11  ASP11      -0.2456
     28  OD2       -8.5540   80.4250   23.0030 O.co2  11  ASP11      -0.2456
     29  N         -4.2790   83.3110   22.7380 N.am   12  GLY12      -0.1942
     30  CA        -3.1500   83.2070   23.6440 C.3    12  GLY12       0.2014
     31  C         -2.8020   81.8330   24.1790 C.2    12  GLY12       0.2638
     32  O         -1.8260   81.6750   24.8980 O.2    12  GLY12      -0.2714
     33  N         -3.5560   80.8090   23.8260 N.am   13  ARG13      -0.1977
     34  CA        -3.2110   79.4980   24.3550 C.3    13  ARG13       0.1597
     35  C         -1.8720   79.0560   23.7870 C.2    13  ARG13       0.2287
     36  O         -1.5070   79.4570   22.6750 O.2    13  ARG13      -0.2864
     37  CB        -4.2680   78.4750   23.9460 C.3    13  ARG13       0.0334
     38  CG        -4.3050   78.2330   22.4220 C.3    13  ARG13       0.0492
     39  CD        -5.4430   77.3010   22.0400 C.3    13  ARG13       0.2205
     40  NE        -6.7180   77.8980   22.4030 N.pl3  13  ARG13      -0.0865
     41  CZ        -7.8810   77.2630   22.3440 C.cat  13  ARG13       0.5346
     42  NH1       -7.9350   75.9890   21.9460 N.pl3  13  ARG13       0.1354
     43  NH2       -8.9910   77.9190   22.6300 N.pl3  13  ARG13       0.1354
     44  N         -8.5210   82.5150   13.6780 N.3    32  PHE32      -0.1227
     45  CA        -9.7840   82.2320   14.3500 C.3    32  PHE32       0.1736
     46  C         -9.8490   82.8050   15.7480 C.2    32  PHE32       0.2596
     47  O         -8.8490   82.8190   16.4730 O.2    32  PHE32      -0.2718
     48  CB        -9.9570   80.7220   14.4210 C.3    32  PHE32       0.0547
     49  CG       -11.3450   80.2790   14.7240 C.ar   32  PHE32      -0.0202
     50  CD1      -12.2740   80.1440   13.6960 C.ar   32  PHE32      -0.0042
     51  CD2      -11.7070   79.9400   16.0220 C.ar   32  PHE32      -0.0042
     52  CE1      -13.5370   79.6700   13.9510 C.ar   32  PHE32      -0.0003
     53  CE2      -12.9790   79.4660   16.3040 C.ar   32  PHE32      -0.0003
     54  CZ       -13.8920   79.3290   15.2660 C.ar   32  PHE32      -0.0000
     55  N        -11.0470   83.2200   16.1380 N.am   33  GLY33      -0.1942
     56  CA       -11.2440   83.8150   17.4460 C.3    33  GLY33       0.2014
     57  C        -11.2620   85.2940   17.1320 C.2    33  GLY33       0.2639
     58  O        -12.2820   85.9630   17.2720 O.2    33  GLY33      -0.2714
     59  N        -10.1210   85.7840   16.6410 N.am   34  LEU34      -0.1963
     60  CA        -9.9910   87.1920   16.2440 C.3    34  LEU34       0.1728
     61  C        -11.1810   87.4960   15.3310 C.2    34  LEU34       0.2616
     62  O        -11.4850   86.7240   14.4340 O.2    34  LEU34      -0.2715
     63  CB        -8.6850   87.4010   15.4680 C.3    34  LEU34       0.0311
     64  CG        -8.3760   88.7960   14.9290 C.3    34  LEU34       0.0022
     65  CD1       -8.1000   89.7260   16.1000 C.3    34  LEU34       0.0001
     66  CD2       -7.1640   88.7260   14.0030 C.3    34  LEU34       0.0001
     67  N        -11.8380   88.6220   15.5610 N.am   35  LYS35      -0.1977
     68  CA       -12.9860   89.0170   14.7670 C.3    35  LYS35       0.1596
     69  C        -12.5730   90.0740   13.7300 C.2    35  LYS35       0.2287
     70  O        -11.6510   90.8890   13.9590 O.2    35  LYS35      -0.2864
     71  CB       -14.0910   89.5620   15.6930 C.3    35  LYS35       0.0298
     72  CG       -14.5300   88.5800   16.8000 C.3    35  LYS35       0.0038
     73  CD       -15.2660   87.3600   16.1820 C.3    35  LYS35       0.0206
     74  CE       -15.8710   86.4660   17.2570 C.3    35  LYS35       0.1093
     75  NZ       -14.8160   85.7950   18.0500 N.3    35  LYS35      -0.1314
     76  N        -13.9390   92.7180   12.9780 N.3    37  TRP37      -0.1241
     77  CA       -14.1080   94.0960   13.4180 C.3    37  TRP37       0.1605
     78  C        -12.8640   94.5820   14.1870 C.2    37  TRP37       0.2264
     79  O        -12.6510   95.7710   14.3620 O.2    37  TRP37      -0.2867
     80  CB       -15.4010   94.2350   14.2220 C.3    37  TRP37       0.0550
     81  CG       -15.6400   93.1890   15.3070 C.ar   37  TRP37       0.0003
     82  CD1      -15.1160   93.1820   16.5670 C.ar   37  TRP37       0.0946
     83  CD2      -16.5770   92.0930   15.2590 C.ar   37  TRP37       0.0152
     84  NE1      -15.6760   92.1650   17.3140 N.ar   37  TRP37      -0.2442
     85  CE2      -16.5770   91.4840   16.5420 C.ar   37  TRP37       0.0810
     86  CE3      -17.4200   91.5730   14.2600 C.ar   37  TRP37       0.0012
     87  CZ2      -17.3910   90.3830   16.8580 C.ar   37  TRP37       0.0191
     88  CZ3      -18.2310   90.4740   14.5750 C.ar   37  TRP37       0.0001
     89  CH2      -18.2070   89.8940   15.8670 C.ar   37  TRP37       0.0015
     90  N         -2.3970   91.4110   22.7370 N.3    48  GLY48      -0.1225
     91  CA        -1.9610   90.6020   23.8490 C.3    48  GLY48       0.1811
     92  C         -3.0850   90.2670   24.7990 C.2    48  GLY48       0.2280
     93  O         -2.8350   89.6360   25.8130 O.2    48  GLY48      -0.2866
     94  N         -7.5150   89.0670   25.1900 N.3    50  GLY50      -0.1210
     95  CA        -8.6690   88.4820   24.5140 C.3    50  GLY50       0.1956
     96  C         -8.3180   87.7440   23.2200 C.2    50  GLY50       0.2611
     97  O         -7.4010   86.9230   23.1990 O.2    50  GLY50      -0.2717
     98  N         -9.0280   88.0390   22.1410 N.am   51  MET51      -0.1979
     99  CA        -8.7410   87.3820   20.8570 C.3    51  MET51       0.1605
    100  C         -7.4700   87.9250   20.1520 C.2    51  MET51       0.2287
    101  O         -7.2110   87.6560   18.9640 O.2    51  MET51      -0.2864
    102  CB        -9.9700   87.4550   19.9290 C.3    51  MET51       0.0413
    103  CG       -11.1030   86.5080   20.3840 C.3    51  MET51       0.0598
    104  SD       -10.5350   84.7600   20.7010 S.3    51  MET51      -0.1393
    105  CE       -12.0860   83.9910   21.1520 C.3    51  MET51       0.0692
    106  N         -4.8550   87.7910   22.2150 N.3    53  GLY53      -0.1225
    107  CA        -3.9760   87.2560   23.2340 C.3    53  GLY53       0.1811
    108  C         -2.7530   86.5680   22.6820 C.2    53  GLY53       0.2280
    109  O         -1.7150   86.4520   23.3650 O.2    53  GLY53      -0.2866
    110  N        -11.3870   84.0700    9.6530 N.3    78  ASN78      -0.1240
    111  CA       -12.6290   83.3980    9.9480 C.3    78  ASN78       0.1653
    112  C        -13.7070   84.4620   10.0710 C.2    78  ASN78       0.2266
    113  O        -13.4940   85.5130   10.6950 O.2    78  ASN78      -0.2867
    114  CB       -12.5520   82.6540   11.2830 C.3    78  ASN78       0.1155
    115  CG       -13.8660   82.0360   11.6510 C.2    78  ASN78       0.2627
    116  OD1      -14.2340   80.9970   11.1020 O.2    78  ASN78      -0.2716
    117  ND2      -14.6090   82.6820   12.5590 N.am   78  ASN78      -0.0877
    118  N        -17.7520   84.6330   11.2050 N.3    80  ASP80      -0.1239
    119  CA       -18.8580   83.8650   11.7670 C.3    80  ASP80       0.1674
    120  C        -20.1990   84.3170   11.2390 C.2    80  ASP80       0.2266
    121  O        -20.3970   85.5210   11.0250 O.2    80  ASP80      -0.2867
    122  CB       -18.9080   84.0330   13.2790 C.3    80  ASP80       0.1410
    123  CG       -17.6090   83.6550   13.9420 C.2    80  ASP80       0.3668
    124  OD1      -16.9230   84.5570   14.4880 O.co2  80  ASP80      -0.2456
    125  OD2      -17.2740   82.4570   13.8940 O.co2  80  ASP80      -0.2456
    126  N        -24.0340   85.2530   11.7380 N.3    82  ASP82      -0.1239
    127  CA       -24.6360   85.9880   12.8160 C.3    82  ASP82       0.1674
    128  C        -26.0900   86.2450   12.4670 C.2    82  ASP82       0.2266
    129  O        -26.4340   86.3760   11.2930 O.2    82  ASP82      -0.2867
    130  CB       -23.8990   87.3270   12.9290 C.3    82  ASP82       0.1410
    131  CG       -24.4210   88.1710   14.0390 C.2    82  ASP82       0.3668
    132  OD1      -25.2890   89.0320   13.7860 O.co2  82  ASP82      -0.2456
    133  OD2      -23.9650   87.9340   15.1710 O.co2  82  ASP82      -0.2456
    134  N        -17.6460   80.4140    9.4640 N.3   119  ASP119     -0.1239
    135  CA       -18.0220   79.4740   10.5050 C.3   119  ASP119      0.1674
    136  C        -19.5290   79.6080   10.6140 C.2   119  ASP119      0.2266
    137  O        -20.0280   80.5550   11.1960 O.2   119  ASP119     -0.2867
    138  CB       -17.3560   79.8230   11.8380 C.3   119  ASP119      0.1410
    139  CG       -17.6490   78.7840   12.9010 C.2   119  ASP119      0.3668
    140  OD1      -18.7290   78.1480   12.8230 O.co2 119  ASP119     -0.2456
    141  OD2      -16.8160   78.6150   13.8040 O.co2 119  ASP119     -0.2456
    142  N        -22.8110   78.3190   12.0880 N.3   121  GLU121     -0.1231
    143  CA       -23.4290   77.5350   13.1620 C.3   121  GLU121      0.1699
    144  C        -24.0640   78.3830   14.2730 C.2   121  GLU121      0.2592
    145  O        -24.6180   77.8220   15.2280 O.2   121  GLU121     -0.2718
    146  CB       -22.3760   76.6550   13.8490 C.3   121  GLU121      0.0402
    147  CG       -21.3300   77.4840   14.6200 C.3   121  GLU121      0.1161
    148  CD       -20.1750   76.6480   15.1710 C.2   121  GLU121      0.3649
    149  OE1      -20.3380   76.0490   16.2400 O.co2 121  GLU121     -0.2457
    150  OE2      -19.1150   76.5790   14.5250 O.co2 121  GLU121     -0.2457
    151  N        -24.0050   79.7030   14.1570 N.am  122  HIS122     -0.1976
    152  CA       -24.5210   80.5470   15.2210 C.3   122  HIS122      0.1656
    153  C        -26.0250   80.6660   15.2920 C.2   122  HIS122      0.2291
    154  O        -26.7160   80.3120   14.3570 O.2   122  HIS122     -0.2864
    155  CB       -23.8360   81.9170   15.1560 C.3   122  HIS122      0.0771
    156  CG       -22.3500   81.8300   15.3010 C.ar  122  HIS122      0.0820
    157  ND1      -21.5110   81.6100   14.2290 N.ar  122  HIS122     -0.2267
    158  CD2      -21.5660   81.8160   16.4040 C.ar  122  HIS122      0.1154
    159  CE1      -20.2740   81.4490   14.6650 C.ar  122  HIS122      0.1986
    160  NE2      -20.2790   81.5670   15.9830 N.ar  122  HIS122     -0.2212
    161  N        -16.9930   76.2980    7.3510 N.3   179  ALA179     -0.1245
    162  CA       -16.7930   75.2830    8.3640 C.3   179  ALA179      0.1562
    163  C        -18.1760   75.1510    9.0110 C.2   179  ALA179      0.2260
    164  O        -18.6680   76.0590    9.7070 O.2   179  ALA179     -0.2867
    165  CB       -15.7250   75.7230    9.3710 C.3   179  ALA179      0.0290
    166  N        -17.2700   70.0280   10.4780 N.3   204  GLN204     -0.1245
    167  CA       -16.7100   70.0070   11.8350 C.3   204  GLN204      0.1566
    168  C        -16.9790   68.6380   12.4360 C.2   204  GLN204      0.2260
    169  O        -17.6320   68.5080   13.4720 O.2   204  GLN204     -0.2867
    170  CB       -17.3750   71.1030   12.6790 C.3   204  GLN204      0.0367
    171  CG       -17.1170   72.5220   12.1600 C.3   204  GLN204      0.0905
    172  CD       -17.7350   73.5610   13.0710 C.2   204  GLN204      0.2608
    173  OE1      -17.6170   73.4440   14.2940 O.2   204  GLN204     -0.2717
    174  NE2      -18.3880   74.5810   12.4950 N.am  204  GLN204     -0.0878
    175  N        -15.7230   66.6810   14.3840 N.3   206  TYR206     -0.1241
    176  CA       -14.8680   66.4750   15.5440 C.3   206  TYR206      0.1605
    177  C        -15.1550   65.1900   16.3120 C.2   206  TYR206      0.2264
    178  O        -16.2800   64.9500   16.7910 O.2   206  TYR206     -0.2867
    179  CB       -15.0070   67.6820   16.4840 C.3   206  TYR206      0.0534
    180  CG       -14.6560   69.0140   15.8240 C.ar  206  TYR206     -0.0201
    181  CD1      -15.2490   70.2090   16.2480 C.ar  206  TYR206     -0.0009
    182  CD2      -13.7010   69.0740   14.8060 C.ar  206  TYR206     -0.0009
    183  CE1      -14.8890   71.4290   15.6580 C.ar  206  TYR206      0.0417
    184  CE2      -13.3310   70.2720   14.2250 C.ar  206  TYR206      0.0417
    185  CZ       -13.9280   71.4500   14.6500 C.ar  206  TYR206      0.1957
    186  OH       -13.5540   72.6440   14.0600 O.3   206  TYR206     -0.2866
    187  N        -10.0010   67.2740   15.5200 N.3   236  TYR236     -0.1241
    188  CA       -10.1940   68.0050   16.7730 C.3   236  TYR236      0.1605
    189  C         -9.0150   67.9770   17.7310 C.2   236  TYR236      0.2264
    190  O         -9.0820   67.4440   18.8520 O.2   236  TYR236     -0.2867
    191  CB       -11.4850   67.5130   17.4420 C.3   236  TYR236      0.0534
    192  CG       -11.9990   68.4240   18.5360 C.ar  236  TYR236     -0.0201
    193  CD1      -12.1360   69.8060   18.3250 C.ar  236  TYR236     -0.0009
    194  CD2      -12.2460   67.9260   19.8010 C.ar  236  TYR236     -0.0009
    195  CE1      -12.4860   70.6680   19.3740 C.ar  236  TYR236      0.0417
    196  CE2      -12.6010   68.7810   20.8610 C.ar  236  TYR236      0.0417
    197  CZ       -12.7070   70.1390   20.6460 C.ar  236  TYR236      0.1957
    198  OH       -13.0000   70.9490   21.7260 O.3   236  TYR236     -0.2866
    199  N         -7.9050   70.2450   19.4390 N.3   238  GLU238     -0.1245
    200  CA        -8.2070   70.9190   20.6790 C.3   238  GLU238      0.1567
    201  C         -8.6030   69.9070   21.7350 C.2   238  GLU238      0.2260
    202  O         -8.3320   70.1060   22.9170 O.2   238  GLU238     -0.2867
    203  CB        -9.3440   71.9180   20.4930 C.3   238  GLU238      0.0388
    204  CG        -9.6800   72.6590   21.7520 C.3   238  GLU238      0.1160
    205  CD       -10.7580   73.6940   21.5390 C.2   238  GLU238      0.3649
    206  OE1      -11.9400   73.3230   21.3750 O.co2 238  GLU238     -0.2457
    207  OE2      -10.4240   74.8910   21.5160 O.co2 238  GLU238     -0.2457
    208  N         -8.8560   69.7840    7.9960 N.3   263  MET263     -0.1245
    209  CA        -8.6310   71.0570    8.6590 C.3   263  MET263      0.1570
    210  C         -8.4150   70.6110   10.1030 C.2   263  MET263      0.2261
    211  O         -8.9410   69.5750   10.5580 O.2   263  MET263     -0.2867
    212  CB        -9.8070   72.0280    8.5700 C.3   263  MET263      0.0387
    213  CG       -11.0910   71.4960    9.1130 C.3   263  MET263      0.0595
    214  SD       -11.3430   71.7350   10.8900 S.3   263  MET263     -0.1393
    215  CE       -13.1590   71.9140   10.9260 C.3   263  MET263      0.0692
    216  N         -8.4910   71.8230   14.0450 N.3   265  TYR265     -0.1241
    217  CA        -8.9730   72.7460   15.0500 C.3   265  TYR265      0.1605
    218  C         -8.4670   72.4290   16.4680 C.2   265  TYR265      0.2264
    219  O         -8.9660   71.4970   17.1020 O.2   265  TYR265     -0.2867
    220  CB       -10.4970   72.7500   15.0530 C.3   265  TYR265      0.0534
    221  CG       -11.0420   73.8530   15.9170 C.ar  265  TYR265     -0.0201
    222  CD1      -11.2320   73.6710   17.2910 C.ar  265  TYR265     -0.0009
    223  CD2      -11.2540   75.1180   15.3780 C.ar  265  TYR265     -0.0009
    224  CE1      -11.6120   74.7350   18.1020 C.ar  265  TYR265      0.0417
    225  CE2      -11.6240   76.1750   16.1570 C.ar  265  TYR265      0.0417
    226  CZ       -11.8020   75.9850   17.5190 C.ar  265  TYR265      0.1957
    227  OH       -12.1360   77.0580   18.2620 O.3   265  TYR265     -0.2866
@<TRIPOS>BOND
     1   161   162    1
     2   208   209    1
     3   162   163    1
     4   162   165    1
     5   212   209    1
     6   212   213    1
     7   209   210    1
     8   163   164    2
     9   213   214    1
    10   134   135    1
    11   110   111    1
    12    12    11    1
    13   111   112    1
    14   111   114    1
    15   112   113    2
    16   210   211    2
    17   166   167    1
    18   135   136    1
    19   135   138    1
    20   136   137    2
    21     9    11   ar
    22     9     7   ar
    23    11    10   ar
    24   214   215    1
    25   121   120    2
    26   116   115    2
    27   118   119    1
    28   120   119    1
    29   114   115    1
    30   129   128    2
    31     7     6   ar
    32    10     8   ar
    33   115   117   am
    34     1     2    1
    35   126   127    1
    36   119   122    1
    37   167   168    1
    38   167   170    1
    39   138   139    1
    40   142   143    1
    41   171   170    1
    42   171   172    1
    43     6     8   ar
    44     6     5    1
    45     2     5    1
    46     2     3    1
    47   168   169    2
    48   128   127    1
    49   174   172   am
    50   127   130    1
    51   140   139   ar
    52   139   141   ar
    53   130   131    1
    54    76    77    1
    55   172   173    2
    56   143   146    1
    57   143   144    1
    58   122   123    1
    59     3     4    2
    60    77    78    1
    61    77    80    1
    62    44    45    1
    63    50    52   ar
    64    50    49   ar
    65    69    70    2
    66    69    68    1
    67   132   131   ar
    68   146   147    1
    69   125   123   ar
    70   123   124   ar
    71    52    54   ar
    72    66    64    1
    73   131   133   ar
    74   216   217    1
    75   186   185    1
    76   151   144   am
    77   151   152    1
    78    78    79    2
    79    80    81    1
    80   184   185   ar
    81   184   182   ar
    82   157   159   ar
    83   157   156   ar
    84    86    88   ar
    85    86    83   ar
    86   144   145    2
    87    45    48    1
    88    45    46    1
    89   154   153    2
    90   175   176    1
    91    48    49    1
    92    62    61    2
    93   150   148   ar
    94    88    89   ar
    95   147   148    1
    96   185   183   ar
    97   159   160   ar
    98    49    51   ar
    99    68    67    1
   100    68    71    1
   101   182   180   ar
   102    64    63    1
   103    64    65    1
   104   217   220    1
   105   217   218    1
   106   220   221    1
   107   155   152    1
   108   155   156    1
   109   148   149   ar
   110   152   153    1
   111    83    81   ar
   112    83    85   ar
   113    54    53   ar
   114   156   158   ar
   115    81    82   ar
   116    61    67   am
   117    61    60    1
   118   223   221   ar
   119   223   225   ar
   120    63    60    1
   121   187   188    1
   122   176   177    1
   123   176   179    1
   124   183   181   ar
   125    71    72    1
   126    46    55   am
   127    46    47    2
   128   180   181   ar
   129   180   179    1
   130    89    87   ar
   131   221   222   ar
   132   160   158   ar
   133    51    53   ar
   134    55    56    1
   135   225   226   ar
   136    73    72    1
   137    73    74    1
   138    60    59    1
   139   177   178    2
   140   218   219    2
   141    85    87   ar
   142    85    84   ar
   143    82    84   ar
   144    13    14    1
   145    59    57   am
   146   188   191    1
   147   188   189    1
   148    57    58    2
   149    57    56    1
   150    74    75    1
   151   222   224   ar
   152    14    15    1
   153    14    17    1
   154   191   192    1
   155   226   224   ar
   156   226   227    1
   157   189   190    2
   158    15    16    2
   159   193   192   ar
   160   193   195   ar
   161    17    18    1
   162    17    19    1
   163   192   194   ar
   164   101   100    2
   165    18    20    1
   166   195   197   ar
   167   199   200    1
   168   194   196   ar
   169   102   103    1
   170   102    99    1
   171   100    99    1
   172   103   104    1
   173   203   200    1
   174   203   204    1
   175   197   196   ar
   176   197   198    1
   177   200   201    1
   178   104   105    1
   179    99    98    1
   180    21    22    1
   181   206   205   ar
   182   207   205   ar
   183   205   204    1
   184   201   202    2
   185    42    41    1
   186    39    40    1
   187    39    38    1
   188    98    96   am
   189   106   107    1
   190    22    25    1
   191    22    23    1
   192    41    40    2
   193    41    43    1
   194    38    37    1
   195    27    26   ar
   196    36    35    2
   197   108   107    1
   198   108   109    2
   199    90    91    1
   200    29    23   am
   201    29    30    1
   202    26    25    1
   203    26    28   ar
   204    97    96    2
   205    96    95    1
   206    23    24    2
   207    30    31    1
   208    35    34    1
   209    33    31   am
   210    33    34    1
   211    91    92    1
   212    37    34    1
   213    31    32    2
   214    95    94    1
   215    92    93    2
