@<TRIPOS>MOLECULE
tmp/1eouA00.pdb
 160 155 0 0 0
SMALL
GASTEIGER

@<TRIPOS>ATOM
      1  N         -3.4820    0.6370    3.6550 N.3    60  ASN60      -0.1240
      2  CA        -2.3400    1.4380    4.0970 C.3    60  ASN60       0.1653
      3  C         -1.0630    0.6400    4.3490 C.2    60  ASN60       0.2266
      4  O         -0.1590    1.1330    5.0140 O.2    60  ASN60      -0.2867
      5  CB        -2.6960    2.2040    5.3790 C.3    60  ASN60       0.1155
      6  CG        -2.9270    1.2820    6.5700 C.2    60  ASN60       0.2627
      7  OD1       -2.4100    0.1690    6.6210 O.2    60  ASN60      -0.2716
      8  ND2       -3.7110    1.7500    7.5360 N.am   60  ASN60      -0.0877
      9  N         -0.5700   -2.0330    6.2920 N.3    62  HIS62      -0.1226
     10  CA        -0.6510   -2.9530    7.4260 C.3    62  HIS62       0.1752
     11  C         -2.1080   -3.3140    7.7460 C.2    62  HIS62       0.2595
     12  O         -2.3740   -4.2100    8.5490 O.2    62  HIS62      -0.2718
     13  CB         0.0440   -2.3820    8.6700 C.3    62  HIS62       0.0759
     14  CG        -0.3080   -0.9590    8.9730 C.ar   62  HIS62       0.0818
     15  ND1       -1.1760   -0.6060    9.9850 N.ar   62  HIS62      -0.2268
     16  CD2        0.1230    0.2020    8.4250 C.ar   62  HIS62       0.1154
     17  CE1       -1.2630    0.7110   10.0480 C.ar   62  HIS62       0.1986
     18  NE2       -0.4850    1.2250    9.1120 N.ar   62  HIS62      -0.2212
     19  N         -3.0470   -2.6210    7.1040 N.am   63  ALA63      -0.1980
     20  CA        -4.4680   -2.8820    7.2970 C.3    63  ALA63       0.1597
     21  C         -5.2480   -2.0650    6.2730 C.2    63  ALA63       0.2287
     22  O         -4.6460   -1.3540    5.4620 O.2    63  ALA63      -0.2864
     23  CB        -4.8710   -2.4800    8.7140 C.3    63  ALA63       0.0319
     24  N         -8.4100    0.7850    5.7950 N.3    65  ASN65      -0.1240
     25  CA        -9.2450    1.7160    6.5400 C.3    65  ASN65       0.1653
     26  C        -10.4930    2.1480    5.7720 C.2    65  ASN65       0.2266
     27  O        -10.4200    2.5280    4.5960 O.2    65  ASN65      -0.2867
     28  CB        -8.4740    2.9970    6.8910 C.3    65  ASN65       0.1155
     29  CG        -7.2390    2.7470    7.7420 C.2    65  ASN65       0.2627
     30  OD1       -6.3380    3.5910    7.8010 O.2    65  ASN65      -0.2716
     31  ND2       -7.1900    1.6030    8.4080 N.am   65  ASN65      -0.0877
     32  N        -12.6800    6.5780   11.2930 N.3    90  GLN90      -0.1245
     33  CA       -12.4570    5.3830   10.4710 C.3    90  GLN90       0.1566
     34  C        -12.5630    4.1140   11.2770 C.2    90  GLN90       0.2260
     35  O        -12.5460    4.1380   12.5110 O.2    90  GLN90      -0.2867
     36  CB       -11.0690    5.3880    9.7790 C.3    90  GLN90       0.0367
     37  CG        -9.8510    5.6600   10.7130 C.3    90  GLN90       0.0905
     38  CD        -9.1070    4.3950   11.2040 C.2    90  GLN90       0.2608
     39  OE1       -9.5890    3.2610   11.0790 O.2    90  GLN90      -0.2717
     40  NE2       -7.9260    4.6050   11.7750 N.am   90  GLN90      -0.0878
     41  N        -11.2170   -0.1520   11.1390 N.3    92  HIS92      -0.1241
     42  CA       -10.3090   -1.1140   10.5280 C.3    92  HIS92       0.1621
     43  C        -10.3460   -2.4110   11.3280 C.2    92  HIS92       0.2264
     44  O        -11.0300   -2.5010   12.3580 O.2    92  HIS92      -0.2867
     45  CB        -8.8840   -0.5720   10.5410 C.3    92  HIS92       0.0745
     46  CG        -8.3500   -0.3520   11.9230 C.ar   92  HIS92       0.0817
     47  ND1       -8.4230    0.8630   12.5650 N.ar   92  HIS92      -0.2268
     48  CD2       -7.7660   -1.2050   12.8000 C.ar   92  HIS92       0.1154
     49  CE1       -7.9100    0.7530   13.7800 C.ar   92  HIS92       0.1986
     50  NE2       -7.5020   -0.4920   13.9470 N.ar   92  HIS92      -0.2212
     51  N         -7.9610   -6.1970   12.5230 N.3    94  HIS94      -0.1241
     52  CA        -6.7080   -6.8700   12.8130 C.3    94  HIS94       0.1621
     53  C         -7.1470   -8.3370   12.7460 C.2    94  HIS94       0.2264
     54  O         -8.1460   -8.7250   13.3660 O.2    94  HIS94      -0.2867
     55  CB        -6.2300   -6.5450   14.2240 C.3    94  HIS94       0.0745
     56  CG        -5.8510   -5.1120   14.4150 C.ar   94  HIS94       0.0817
     57  ND1       -4.6040   -4.6240   14.0850 N.ar   94  HIS94      -0.2268
     58  CD2       -6.5400   -4.0710   14.9410 C.ar   94  HIS94       0.1154
     59  CE1       -4.5390   -3.3440   14.4060 C.ar   94  HIS94       0.1986
     60  NE2       -5.6990   -2.9840   14.9270 N.ar   94  HIS94      -0.2212
     61  N        -12.0180   -2.4070   14.9590 N.3   117  HIS117     -0.1241
     62  CA       -11.7540   -1.2060   15.7370 C.3   117  HIS117      0.1621
     63  C        -12.4040    0.0060   15.0730 C.2   117  HIS117      0.2264
     64  O        -12.0650    0.3560   13.9390 O.2   117  HIS117     -0.2867
     65  CB       -10.2360   -0.9720   15.8560 C.3   117  HIS117      0.0745
     66  CG        -9.5510   -1.9160   16.7990 C.ar  117  HIS117      0.0817
     67  ND1       -8.1850   -2.1030   16.8090 N.ar  117  HIS117     -0.2268
     68  CD2      -10.0440   -2.6930   17.7950 C.ar  117  HIS117      0.1154
     69  CE1       -7.8650   -2.9500   17.7720 C.ar  117  HIS117      0.1986
     70  NE2       -8.9740   -3.3220   18.3850 N.ar  117  HIS117     -0.2212
     71  N        -12.5860    3.7780   15.3650 N.3   119  VAL119     -0.1245
     72  CA       -11.8290    4.8900   15.9380 C.3   119  VAL119      0.1561
     73  C        -12.5450    6.2340   15.9460 C.2   119  VAL119      0.2260
     74  O        -12.9590    6.7150   14.8910 O.2   119  VAL119     -0.2867
     75  CB       -10.4790    5.0630   15.1800 C.3   119  VAL119      0.0252
     76  CG1       -9.5810    6.0560   15.9280 C.3   119  VAL119      0.0019
     77  CG2       -9.7620    3.7080   15.0490 C.3   119  VAL119      0.0019
     78  N         -8.0060   15.1880   14.7640 N.3   128  PHE128     -0.1241
     79  CA        -7.4590   13.9110   15.1800 C.3   128  PHE128      0.1605
     80  C         -6.0300   14.0690   15.6820 C.2   128  PHE128      0.2264
     81  O         -5.6740   13.5560   16.7360 O.2   128  PHE128     -0.2867
     82  CB        -7.4980   12.9270   14.0030 C.3   128  PHE128      0.0534
     83  CG        -6.9280   11.5840   14.3230 C.ar  128  PHE128     -0.0203
     84  CD1       -7.7090   10.6090   14.9240 C.ar  128  PHE128     -0.0042
     85  CD2       -5.6030   11.2900   14.0270 C.ar  128  PHE128     -0.0042
     86  CE1       -7.1860    9.3590   15.2270 C.ar  128  PHE128     -0.0003
     87  CE2       -5.0670   10.0370   14.3280 C.ar  128  PHE128     -0.0003
     88  CZ        -5.8650    9.0720   14.9300 C.ar  128  PHE128     -0.0000
     89  N         -4.7400   12.8610   19.5690 N.3   132  VAL132     -0.1245
     90  CA        -3.7940   11.8020   19.9320 C.3   132  VAL132      0.1561
     91  C         -2.7150   12.2430   20.9230 C.2   132  VAL132      0.2260
     92  O         -2.0340   11.4040   21.5070 O.2   132  VAL132     -0.2867
     93  CB        -3.1210   11.1580   18.6890 C.3   132  VAL132      0.0252
     94  CG1       -4.1940   10.5190   17.8100 C.3   132  VAL132      0.0019
     95  CG2       -2.2910   12.1830   17.9130 C.3   132  VAL132      0.0019
     96  N        -11.7810    4.0750   21.2550 N.3   140  VAL140     -0.1245
     97  CA       -11.8390    3.0530   20.2160 C.3   140  VAL140      0.1561
     98  C        -12.7940    1.9440   20.6430 C.2   140  VAL140      0.2260
     99  O        -12.6570    1.3690   21.7220 O.2   140  VAL140     -0.2867
    100  CB       -10.4340    2.4580   19.8950 C.3   140  VAL140      0.0252
    101  CG1      -10.5360    1.4730   18.7270 C.3   140  VAL140      0.0019
    102  CG2       -9.4660    3.5750   19.5120 C.3   140  VAL140      0.0019
    103  N         -2.7710    3.3520   21.4680 N.3   195  LEU195     -0.1231
    104  CA        -2.9250    2.9260   20.0900 C.3   195  LEU195      0.1693
    105  C         -2.2160    1.5700   20.0930 C.2   195  LEU195      0.2593
    106  O         -1.2650    1.3780   20.8560 O.2   195  LEU195     -0.2718
    107  CB        -2.1670    3.8650   19.1540 C.3   195  LEU195      0.0284
    108  CG        -2.5000    5.3600   19.1490 C.3   195  LEU195      0.0019
    109  CD1       -1.4300    6.0830   18.3170 C.3   195  LEU195      0.0001
    110  CD2       -3.8810    5.5920   18.5700 C.3   195  LEU195      0.0001
    111  N         -2.6380    0.6400   19.2420 N.am  196  THR196     -0.1939
    112  CA        -1.9770   -0.6610   19.2160 C.3   196  THR196      0.2028
    113  C         -0.9110   -0.7410   18.1350 C.2   196  THR196      0.2643
    114  O         -0.2740   -1.7930   17.9560 O.2   196  THR196     -0.2714
    115  CB        -2.9770   -1.8040   19.0090 C.3   196  THR196      0.1808
    116  OG1       -3.6320   -1.6230   17.7530 O.3   196  THR196     -0.2208
    117  CG2       -4.0060   -1.8330   20.1380 C.3   196  THR196      0.0379
    118  N         -0.7370    0.3520   17.3900 N.am  197  THR197     -0.1937
    119  CA         0.2950    0.4200   16.3640 C.3   197  THR197      0.2013
    120  C          1.1450    1.6320   16.6790 C.2   197  THR197      0.2484
    121  O          0.7040    2.5520   17.3870 O.2   197  THR197     -0.2729
    122  CB        -0.2480    0.6730   14.9360 C.3   197  THR197      0.1807
    123  OG1       -0.8160    1.9950   14.8710 O.3   197  THR197     -0.2208
    124  CG2       -1.2790   -0.3710   14.5490 C.3   197  THR197      0.0379
    125  N          2.3940    1.6380   16.2020 N.am  198  PRO198     -0.2715
    126  CA         3.2220    2.8150   16.4780 C.3   198  PRO198      0.1521
    127  C          2.4050    3.9800   15.9300 C.2   198  PRO198      0.2440
    128  O          1.6460    3.8040   14.9570 O.2   198  PRO198     -0.2731
    129  CB         4.4750    2.5670   15.6470 C.3   198  PRO198      0.0310
    130  CG         4.5470    1.0490   15.5290 C.3   198  PRO198      0.0237
    131  CD         3.1180    0.5970   15.4510 C.3   198  PRO198      0.0939
    132  N          2.5580    5.1840   16.5010 N.am  199  PRO199     -0.2727
    133  CA         3.4220    5.5990   17.6120 C.3   199  PRO199      0.1402
    134  C          3.0210    5.1290   19.0150 C.2   199  PRO199      0.2269
    135  O          3.5840    5.6050   20.0020 O.2   199  PRO199     -0.2865
    136  CB         3.4160    7.1250   17.5080 C.3   199  PRO199      0.0296
    137  CG         2.0680    7.4340   16.9370 C.3   199  PRO199      0.0237
    138  CD         1.7650    6.3140   15.9760 C.3   199  PRO199      0.0939
    139  N          0.8530    5.9360   21.0370 N.3   201  LEU201     -0.1245
    140  CA         0.4880    7.0010   21.9700 C.3   201  LEU201      0.1561
    141  C         -0.5400    6.5220   23.0060 C.2   201  LEU201      0.2260
    142  O         -1.4840    5.8200   22.6720 O.2   201  LEU201     -0.2867
    143  CB        -0.0490    8.2020   21.1850 C.3   201  LEU201      0.0270
    144  CG         1.0040    8.6420   20.1550 C.3   201  LEU201      0.0019
    145  CD1        0.4820    9.7450   19.2150 C.3   201  LEU201      0.0001
    146  CD2        2.2350    9.1050   20.9230 C.3   201  LEU201      0.0001
    147  N        -10.3870    2.6130   25.7620 N.3   206  TRP206     -0.1241
    148  CA       -10.8540    1.4270   25.0750 C.3   206  TRP206      0.1605
    149  C        -12.1840    0.9520   25.6020 C.2   206  TRP206      0.2264
    150  O        -12.4200    0.9020   26.8180 O.2   206  TRP206     -0.2867
    151  CB        -9.8210    0.2990   25.2070 C.3   206  TRP206      0.0550
    152  CG        -8.6750    0.4640   24.2720 C.ar  206  TRP206      0.0003
    153  CD1       -7.4850    1.0690   24.5380 C.ar  206  TRP206      0.0946
    154  CD2       -8.6320    0.0730   22.8960 C.ar  206  TRP206      0.0152
    155  NE1       -6.6990    1.0860   23.4020 N.ar  206  TRP206     -0.2442
    156  CE2       -7.3820    0.4800   22.3830 C.ar  206  TRP206      0.0810
    157  CE3       -9.5340   -0.5820   22.0430 C.ar  206  TRP206      0.0012
    158  CZ2       -7.0100    0.2550   21.0590 C.ar  206  TRP206      0.0191
    159  CZ3       -9.1670   -0.8050   20.7350 C.ar  206  TRP206      0.0001
    160  CH2       -7.9120   -0.3870   20.2490 C.ar  206  TRP206      0.0015
@<TRIPOS>BOND
     1     1     2    1
     2     2     3    1
     3     2     5    1
     4     3     4    2
     5    27    26    2
     6     5     6    1
     7    22    21    2
     8    26    25    1
     9    24    25    1
    10    21    20    1
    11     9    10    1
    12    25    28    1
    13     6     7    2
    14     6     8   am
    15    28    29    1
    16    19    20    1
    17    19    11   am
    18    20    23    1
    19    10    11    1
    20    10    13    1
    21    29    30    2
    22    29    31   am
    23    11    12    2
    24    16    14   ar
    25    16    18   ar
    26    13    14    1
    27    14    15   ar
    28    18    17   ar
    29    36    33    1
    30    36    37    1
    31    15    17   ar
    32    33    34    1
    33    33    32    1
    34    42    45    1
    35    42    41    1
    36    42    43    1
    37    45    46    1
    38    37    38    1
    39    39    38    2
    40    38    40   am
    41    34    35    2
    42    43    44    2
    43    46    47   ar
    44    46    48   ar
    45    51    52    1
    46    47    49   ar
    47    53    52    1
    48    53    54    2
    49    48    50   ar
    50    52    55    1
    51    49    50   ar
    52    64    63    2
    53    82    83    1
    54    82    79    1
    55    85    83   ar
    56    85    87   ar
    57    57    59   ar
    58    57    56   ar
    59    55    56    1
    60    83    84   ar
    61    87    88   ar
    62    59    60   ar
    63    56    58   ar
    64   124   122    1
    65    78    79    1
    66   123   122    1
    67    74    73    2
    68    84    86   ar
    69    60    58   ar
    70    88    86   ar
    71   122   119    1
    72   128   127    2
    73    61    62    1
    74    77    75    1
    75    63    62    1
    76    79    80    1
    77    75    76    1
    78    75    72    1
    79    71    72    1
    80   131   130    1
    81   131   125    1
    82   130   129    1
    83   129   126    1
    84    80    81    2
    85    62    65    1
    86    65    66    1
    87   127   126    1
    88   127   132   am
    89    72    73    1
    90   138   132    1
    91   138   137    1
    92   125   126    1
    93   125   120   am
    94   119   120    1
    95   119   118    1
    96   132   133    1
    97   120   121    2
    98    66    67   ar
    99    66    68   ar
   100    67    69   ar
   101   137   136    1
   102   118   113   am
   103   136   133    1
   104   133   134    1
   105   116   115    1
   106    69    70   ar
   107    68    70   ar
   108    94    93    1
   109    95    93    1
   110   114   113    2
   111   113   112    1
   112   109   108    1
   113   110   108    1
   114    93    90    1
   115   101   100    1
   116   115   112    1
   117   115   117    1
   118   134   135    2
   119   108   107    1
   120   107   104    1
   121   145   144    1
   122   112   111    1
   123   111   105   am
   124   102   100    1
   125    89    90    1
   126   100    97    1
   127    90    91    1
   128   104   105    1
   129   104   103    1
   130   105   106    2
   131   144   146    1
   132   144   143    1
   133    97    98    1
   134    97    96    1
   135   160   159   ar
   136   160   158   ar
   137    98    99    2
   138   159   157   ar
   139    91    92    2
   140   139   140    1
   141   158   156   ar
   142   143   140    1
   143   140   141    1
   144   157   154   ar
   145   156   154   ar
   146   156   155   ar
   147   142   141    2
   148   154   152   ar
   149   155   153   ar
   150   152   153   ar
   151   152   151    1
   152   148   151    1
   153   148   149    1
   154   148   147    1
   155   149   150    2
