@<TRIPOS>MOLECULE
tmp/1eowA00.pdb
 109 105 0 0 0
SMALL
GASTEIGER

@<TRIPOS>ATOM
      1  N          2.3270   -1.5430   13.4270 N.3    12  HIS12      -0.1241
      2  CA         3.3480   -1.4980   12.3840 C.3    12  HIS12       0.1621
      3  C          3.1550   -2.1920   11.0500 C.2    12  HIS12       0.2264
      4  O          3.9940   -2.0040   10.1560 O.2    12  HIS12      -0.2867
      5  CB         4.7050   -2.0270   12.9480 C.3    12  HIS12       0.0745
      6  CG         5.1860   -1.3310   14.2070 C.ar   12  HIS12       0.0817
      7  ND1        5.5910   -0.0110   14.2290 N.ar   12  HIS12      -0.2268
      8  CD2        5.2830   -1.7660   15.4900 C.ar   12  HIS12       0.1154
      9  CE1        5.9060    0.3340   15.4670 C.ar   12  HIS12       0.1986
     10  NE2        5.7240   -0.7120   16.2490 N.ar   12  HIS12      -0.2212
     11  N          1.2530    9.7220   19.3900 N.3    41  LYS41      -0.1245
     12  CA         2.5180    8.9770   19.3400 C.3    41  LYS41       0.1561
     13  C          3.3710    9.8200   18.3870 C.2    41  LYS41       0.2260
     14  O          2.9930   10.0390   17.2330 O.2    41  LYS41      -0.2867
     15  CB         2.3140    7.5610   18.7790 C.3    41  LYS41       0.0271
     16  CG         3.6100    6.7790   18.7170 C.3    41  LYS41       0.0035
     17  CD         3.4200    5.2790   18.5270 C.3    41  LYS41       0.0206
     18  CE         4.7930    4.5990   18.3570 C.3    41  LYS41       0.1093
     19  NZ         4.6170    3.1400   18.0850 N.3    41  LYS41      -0.1314
     20  N          6.4150    9.2940   16.7130 N.3    43  VAL43      -0.1231
     21  CA         6.9910    8.6310   15.5320 C.3    43  VAL43       0.1692
     22  C          6.4960    7.2110   15.4810 C.2    43  VAL43       0.2592
     23  O          6.3530    6.5510   16.5170 O.2    43  VAL43      -0.2718
     24  CB         8.5430    8.5760   15.5010 C.3    43  VAL43       0.0266
     25  CG1        9.1040    9.9710   15.6100 C.3    43  VAL43       0.0020
     26  CG2        9.0690    7.7160   16.6170 C.3    43  VAL43       0.0020
     27  N          6.2150    6.7440   14.2710 N.am   44  ASN44      -0.1960
     28  CA         5.7460    5.3910   14.0780 C.3    44  ASN44       0.1819
     29  C          6.0550    4.9590   12.6490 C.2    44  ASN44       0.2621
     30  O          5.9260    5.7540   11.7220 O.2    44  ASN44      -0.2715
     31  CB         4.2450    5.2790   14.3410 C.3    44  ASN44       0.1195
     32  CG         3.7830    3.8170   14.3790 C.2    44  ASN44       0.2630
     33  OD1        4.1070    3.0830   15.3070 O.2    44  ASN44      -0.2716
     34  ND2        3.0890    3.3790   13.3480 N.am   44  ASN44      -0.0877
     35  N          6.5320    3.7320   12.4860 N.am   45  THR45      -0.1951
     36  CA         6.8380    3.2130   11.1720 C.3    45  THR45       0.1897
     37  C          5.8900    2.0690   10.8060 C.2    45  THR45       0.2313
     38  O          5.5570    1.2270   11.6490 O.2    45  THR45      -0.2863
     39  CB         8.2700    2.6990   11.1060 C.3    45  THR45       0.1794
     40  OG1        9.1640    3.7540   11.4640 O.3    45  THR45      -0.2208
     41  CG2        8.6180    2.1900    9.7140 C.3    45  THR45       0.0378
     42  N         18.7790   -0.4300   20.2630 N.3    66  LYS66      -0.1245
     43  CA        19.3320    0.8870   20.5240 C.3    66  LYS66       0.1561
     44  C         19.5980    1.0480   22.0250 C.2    66  LYS66       0.2260
     45  O         20.5930    1.6760   22.4170 O.2    66  LYS66      -0.2867
     46  CB        18.3830    1.9850   20.0500 C.3    66  LYS66       0.0271
     47  CG        18.6720    2.4700   18.6520 C.3    66  LYS66       0.0035
     48  CD        17.9520    3.7990   18.3860 C.3    66  LYS66       0.0206
     49  CE        18.6830    4.6310   17.2960 C.3    66  LYS66       0.1093
     50  NZ        18.2650    6.0850   17.2650 N.3    66  LYS66      -0.1314
     51  N          7.5770    6.0980    7.1330 N.3    83  ASP83      -0.1239
     52  CA         7.9380    6.7650    8.3650 C.3    83  ASP83       0.1674
     53  C          6.9330    7.8920    8.6030 C.2    83  ASP83       0.2266
     54  O          6.6450    8.6820    7.7050 O.2    83  ASP83      -0.2867
     55  CB         9.3450    7.2960    8.2170 C.3    83  ASP83       0.1410
     56  CG         9.7950    8.0530    9.4210 C.2    83  ASP83       0.3668
     57  OD1       10.5050    7.4440   10.2680 O.co2  83  ASP83      -0.2456
     58  OD2        9.4160    9.2540    9.5150 O.co2  83  ASP83      -0.2456
     59  N          5.9930   10.9780   11.1820 N.3    85  ARG85      -0.1245
     60  CA         6.5370   11.9090   12.1860 C.3    85  ARG85       0.1563
     61  C          5.5990   13.0910   12.4150 C.2    85  ARG85       0.2260
     62  O          5.1570   13.7390   11.4650 O.2    85  ARG85      -0.2867
     63  CB         7.8330   12.4550   11.6600 C.3    85  ARG85       0.0307
     64  CG         8.6720   13.0430   12.6860 C.3    85  ARG85       0.0489
     65  CD         9.8670   12.1570   12.8150 C.3    85  ARG85       0.2205
     66  NE        10.5470   12.0510   11.5330 N.pl3  85  ARG85      -0.0865
     67  CZ        11.4520   11.1260   11.2550 C.cat  85  ARG85       0.5346
     68  NH1       11.7710   10.2100   12.1770 N.pl3  85  ARG85       0.1354
     69  NH2       12.0780   11.1550   10.0740 N.pl3  85  ARG85       0.1354
     70  N          8.4270   -5.2480   19.0450 N.3   119  HIS119     -0.1226
     71  CA         8.7760   -3.8330   19.1170 C.3   119  HIS119      0.1752
     72  C          9.5600   -3.4500   17.8650 C.2   119  HIS119      0.2596
     73  O         10.3910   -4.2130   17.3910 O.2   119  HIS119     -0.2718
     74  CB         9.6060   -3.6010   20.4340 C.3   119  HIS119      0.0759
     75  CG        10.5600   -2.4370   20.3910 C.ar  119  HIS119      0.0818
     76  ND1       10.1560   -1.1260   20.5560 N.ar  119  HIS119     -0.2268
     77  CD2       11.8970   -2.3880   20.1570 C.ar  119  HIS119      0.1154
     78  CE1       11.1960   -0.3180   20.4120 C.ar  119  HIS119      0.1986
     79  NE2       12.2670   -1.0590   20.1700 N.ar  119  HIS119     -0.2212
     80  N          9.2720   -2.2790   17.3220 N.am  120  PHE120     -0.1962
     81  CA        10.0140   -1.7830   16.1770 C.3   120  PHE120      0.1771
     82  C         11.1150   -0.8840   16.7580 C.2   120  PHE120      0.2620
     83  O         10.8220    0.1010   17.4370 O.2   120  PHE120     -0.2715
     84  CB         9.1070   -0.9690   15.2300 C.3   120  PHE120      0.0574
     85  CG         9.7730   -0.6250   13.9250 C.ar  120  PHE120     -0.0200
     86  CD1       10.6030    0.4970   13.8260 C.ar  120  PHE120     -0.0042
     87  CD2        9.6130   -1.4510   12.8040 C.ar  120  PHE120     -0.0042
     88  CE1       11.2650    0.7850   12.6370 C.ar  120  PHE120     -0.0003
     89  CE2       10.2750   -1.1650   11.6070 C.ar  120  PHE120     -0.0003
     90  CZ        11.0970   -0.0570   11.5250 C.ar  120  PHE120     -0.0000
     91  N         12.3740   -1.2190   16.4900 N.am  121  ASP121     -0.1957
     92  CA        13.4740   -0.4490   17.0300 C.3   121  ASP121      0.1840
     93  C         13.9890    0.6510   16.1160 C.2   121  ASP121      0.2622
     94  O         14.2090    1.7710   16.5630 O.2   121  ASP121     -0.2715
     95  CB        14.6140   -1.4000   17.4170 C.3   121  ASP121      0.1450
     96  CG        15.5150   -0.8380   18.5470 C.2   121  ASP121      0.3671
     97  OD1       14.9720   -0.4820   19.6180 O.co2 121  ASP121     -0.2456
     98  OD2       16.7500   -0.7620   18.3640 O.co2 121  ASP121     -0.2456
     99  N         14.1600    0.3600   14.8310 N.am  122  ALA122     -0.1963
    100  CA        14.7100    1.3460   13.9380 C.3   122  ALA122      0.1728
    101  C         14.7940    0.8240   12.5090 C.2   122  ALA122      0.2616
    102  O         14.6300   -0.3600   12.2530 O.2   122  ALA122     -0.2715
    103  CB        16.1040    1.6870   14.4140 C.3   122  ALA122      0.0334
    104  N         15.0570    1.7230   11.5800 N.am  123  SER123     -0.1950
    105  CA        15.2250    1.3450   10.1950 C.3   123  SER123      0.1924
    106  C         16.5840    1.8960    9.8360 C.2   123  SER123      0.2314
    107  O         16.9590    2.9690   10.2950 O.2   123  SER123     -0.2863
    108  CB        14.1000    1.9310    9.3190 C.3   123  SER123      0.2116
    109  OG        13.9880    3.3420    9.4270 O.3   123  SER123     -0.2180
@<TRIPOS>BOND
     1    51    52    1
     2    54    53    2
     3    55    52    1
     4    55    56    1
     5    52    53    1
     6   108   109    1
     7   108   105    1
     8    56    58   ar
     9    56    57   ar
    10    41    39    1
    11   106   105    1
    12   106   107    2
    13    69    67    1
    14     4     3    2
    15   105   104    1
    16    37    36    1
    17    37    38    2
    18     3     2    1
    19    39    36    1
    20    39    40    1
    21    36    35    1
    22    59    60    1
    23    67    66    2
    24    67    68    1
    25    62    61    2
    26    90    89   ar
    27    90    88   ar
    28    66    65    1
    29   104   101   am
    30    89    87   ar
    31    63    60    1
    32    63    64    1
    33    30    29    2
    34    60    61    1
    35   102   101    2
    36     2     5    1
    37     2     1    1
    38    35    29   am
    39   101   100    1
    40    88    86   ar
    41    29    28    1
    42    64    65    1
    43    87    85   ar
    44     5     6    1
    45    34    32   am
    46    86    85   ar
    47    85    84    1
    48   100   103    1
    49   100    99    1
    50    28    27    1
    51    28    31    1
    52     6     7   ar
    53     6     8   ar
    54     7     9   ar
    55    27    22   am
    56    31    32    1
    57    32    33    2
    58    99    93   am
    59    84    81    1
    60     9    10   ar
    61    22    21    1
    62    22    23    2
    63     8    10   ar
    64    24    21    1
    65    24    25    1
    66    24    26    1
    67    21    20    1
    68    93    94    2
    69    93    92    1
    70    81    82    1
    71    81    80    1
    72    91    82   am
    73    91    92    1
    74    82    83    2
    75    92    95    1
    76    14    13    2
    77    50    49    1
    78    49    48    1
    79    80    72   am
    80    73    72    2
    81    95    96    1
    82    72    71    1
    83    19    18    1
    84    18    17    1
    85    98    96   ar
    86    48    47    1
    87    13    12    1
    88    17    16    1
    89    96    97   ar
    90    47    46    1
    91    16    15    1
    92    15    12    1
    93    70    71    1
    94    71    74    1
    95    12    11    1
    96    46    43    1
    97    77    79   ar
    98    77    75   ar
    99    79    78   ar
   100    42    43    1
   101    75    74    1
   102    75    76   ar
   103    78    76   ar
   104    43    44    1
   105    44    45    2
