@<TRIPOS>MOLECULE
tmp/1ep4A00.pdb
 173 172 0 0 0
SMALL
GASTEIGER

@<TRIPOS>ATOM
      1  N          9.5060  -33.9360   27.8400 N.3    86  PRO86      -0.2116
      2  CA         9.2320  -33.8300   26.4000 C.3    86  PRO86       0.1372
      3  C          7.8560  -33.2260   26.0610 C.2    86  PRO86       0.2244
      4  O          7.0190  -32.9900   26.9320 O.2    86  PRO86      -0.2868
      5  CB         9.2970  -35.2930   25.9650 C.3    86  PRO86       0.0268
      6  CG         8.6460  -35.9800   27.0750 C.3    86  PRO86       0.0207
      7  CD         9.2590  -35.3090   28.2930 C.3    86  PRO86       0.0892
      8  N          4.6090  -37.4870   20.8570 N.3    91  LEU91      -0.1231
      9  CA         4.1130  -38.8240   21.1290 C.3    91  LEU91       0.1693
     10  C          3.3620  -39.3800   19.9340 C.2    91  LEU91       0.2592
     11  O          2.4510  -38.7370   19.4020 O.2    91  LEU91      -0.2718
     12  CB         3.1780  -38.8070   22.3420 C.3    91  LEU91       0.0284
     13  CG         3.7550  -38.5880   23.7410 C.3    91  LEU91       0.0019
     14  CD1        2.6290  -38.4920   24.7350 C.3    91  LEU91       0.0001
     15  CD2        4.6690  -39.7270   24.1100 C.3    91  LEU91       0.0001
     16  N          3.7450  -40.5800   19.5090 N.am   92  LYS92      -0.1966
     17  CA         3.0850  -41.2220   18.3830 C.3    92  LYS92       0.1728
     18  C          1.7660  -41.7580   18.9150 C.2    92  LYS92       0.2616
     19  O          1.7260  -42.3460   20.0020 O.2    92  LYS92      -0.2715
     20  CB         3.9460  -42.3690   17.8460 C.3    92  LYS92       0.0311
     21  CG         5.2460  -41.9240   17.1770 C.3    92  LYS92       0.0038
     22  CD         6.4450  -42.8160   17.5440 C.3    92  LYS92       0.0206
     23  CE         6.7320  -42.7990   19.0570 C.3    92  LYS92       0.1093
     24  NZ         7.9580  -43.5700   19.4430 N.3    92  LYS92      -0.1314
     25  N          0.6930  -41.5320   18.1580 N.am   93  LYS93      -0.1963
     26  CA        -0.6420  -41.9970   18.5310 C.3    93  LYS93       0.1728
     27  C         -0.7940  -43.4910   18.2140 C.2    93  LYS93       0.2616
     28  O         -0.7310  -43.9110   17.0560 O.2    93  LYS93      -0.2715
     29  CB        -1.7170  -41.1900   17.7830 C.3    93  LYS93       0.0311
     30  CG        -3.1490  -41.3910   18.3010 C.3    93  LYS93       0.0038
     31  CD        -4.1470  -40.5940   17.4780 C.3    93  LYS93       0.0206
     32  CE        -5.5800  -40.7980   17.9530 C.3    93  LYS93       0.1093
     33  NZ        -6.5730  -40.1850   17.0080 N.3    93  LYS93      -0.1314
     34  N         -0.9820  -44.2920   19.2520 N.am   94  LYS94      -0.1977
     35  CA        -1.1490  -45.7240   19.0830 C.3    94  LYS94       0.1596
     36  C         -2.6460  -46.0380   19.2000 C.2    94  LYS94       0.2287
     37  O         -3.4410  -45.1730   19.5820 O.2    94  LYS94      -0.2864
     38  CB        -0.3800  -46.4730   20.1780 C.3    94  LYS94       0.0298
     39  CG         0.9750  -45.8920   20.5350 C.3    94  LYS94       0.0038
     40  CD         1.8860  -45.8000   19.3330 C.3    94  LYS94       0.0206
     41  CE         2.2600  -47.1550   18.8090 C.3    94  LYS94       0.1093
     42  NZ         3.1150  -47.0130   17.6120 N.3    94  LYS94      -0.1314
     43  N         -3.1840  -48.4070   24.5640 N.3    97  VAL97      -0.1245
     44  CA        -2.1400  -48.0920   25.5320 C.3    97  VAL97       0.1561
     45  C         -2.5670  -48.6750   26.8950 C.2    97  VAL97       0.2260
     46  O         -3.6570  -48.3730   27.3910 O.2    97  VAL97      -0.2867
     47  CB        -1.9470  -46.5560   25.6670 C.3    97  VAL97       0.0252
     48  CG1       -0.7790  -46.2600   26.5910 C.3    97  VAL97       0.0019
     49  CG2       -1.7270  -45.9260   24.2940 C.3    97  VAL97       0.0019
     50  N          5.6050  -49.1630   22.3710 N.3   165  VAL165     -0.1245
     51  CA         6.1410  -47.9990   23.0430 C.3   165  VAL165      0.1561
     52  C          5.9720  -48.1890   24.5380 C.2   165  VAL165      0.2260
     53  O          4.8880  -48.5370   25.0010 O.2   165  VAL165     -0.2867
     54  CB         5.3790  -46.7330   22.6530 C.3   165  VAL165      0.0252
     55  CG1        6.3440  -45.5970   22.4670 C.3   165  VAL165      0.0019
     56  CG2        4.5670  -46.9750   21.3990 C.3   165  VAL165      0.0019
     57  N          6.7160  -46.1660   28.1160 N.3   167  TYR167     -0.1241
     58  CA         7.1370  -44.9790   28.8350 C.3   167  TYR167      0.1605
     59  C          7.1200  -45.3240   30.3090 C.2   167  TYR167      0.2264
     60  O          6.0940  -45.7180   30.8480 O.2   167  TYR167     -0.2867
     61  CB         6.1860  -43.8050   28.5660 C.3   167  TYR167      0.0534
     62  CG         6.6470  -42.5150   29.1990 C.ar  167  TYR167     -0.0201
     63  CD1        5.8640  -41.8450   30.1260 C.ar  167  TYR167     -0.0009
     64  CD2        7.8870  -41.9840   28.8920 C.ar  167  TYR167     -0.0009
     65  CE1        6.3110  -40.6740   30.7380 C.ar  167  TYR167      0.0417
     66  CE2        8.3430  -40.8190   29.4950 C.ar  167  TYR167      0.0417
     67  CZ         7.5560  -40.1640   30.4170 C.ar  167  TYR167      0.1957
     68  OH         8.0390  -39.0130   31.0090 O.3   167  TYR167     -0.2866
     69  N          7.3970  -43.9880   33.9770 N.3   169  TYR169     -0.1241
     70  CA         7.2980  -42.7460   34.7300 C.3   169  TYR169      0.1605
     71  C          6.8750  -43.0710   36.1450 C.2   169  TYR169      0.2264
     72  O          5.8280  -43.6850   36.3620 O.2   169  TYR169     -0.2867
     73  CB         6.2800  -41.7850   34.0990 C.3   169  TYR169      0.0534
     74  CG         6.2210  -40.4330   34.7880 C.ar  169  TYR169     -0.0201
     75  CD1        5.0490  -39.9840   35.4130 C.ar  169  TYR169     -0.0009
     76  CD2        7.3480  -39.6160   34.8450 C.ar  169  TYR169     -0.0009
     77  CE1        5.0070  -38.7470   36.0780 C.ar  169  TYR169      0.0417
     78  CE2        7.3210  -38.3840   35.5050 C.ar  169  TYR169      0.0417
     79  CZ         6.1510  -37.9540   36.1200 C.ar  169  TYR169      0.1957
     80  OH         6.1360  -36.7340   36.7660 O.3   169  TYR169     -0.2866
     81  N          3.5570  -47.0650   30.7810 N.3   174  TYR174     -0.1241
     82  CA         2.5940  -46.8090   29.7270 C.3   174  TYR174      0.1605
     83  C          3.0570  -47.5130   28.4650 C.2   174  TYR174      0.2264
     84  O          4.0400  -47.1200   27.8470 O.2   174  TYR174     -0.2867
     85  CB         2.4410  -45.3020   29.4940 C.3   174  TYR174      0.0534
     86  CG         1.8240  -44.6080   30.6870 C.ar  174  TYR174     -0.0201
     87  CD1        2.5970  -44.2500   31.7990 C.ar  174  TYR174     -0.0009
     88  CD2        0.4440  -44.3930   30.7490 C.ar  174  TYR174     -0.0009
     89  CE1        2.0030  -43.6940   32.9510 C.ar  174  TYR174      0.0417
     90  CE2       -0.1580  -43.8450   31.8890 C.ar  174  TYR174      0.0417
     91  CZ         0.6230  -43.4960   32.9840 C.ar  174  TYR174      0.1957
     92  OH         0.0120  -42.9350   34.0890 O.3   174  TYR174     -0.2866
     93  N          2.1430  -48.7350   24.6540 N.3   176  GLY176     -0.1225
     94  CA         1.2420  -48.5820   23.5370 C.3   176  GLY176      0.1811
     95  C          1.6970  -49.4000   22.3550 C.2   176  GLY176      0.2280
     96  O          2.8850  -49.6280   22.1720 O.2   176  GLY176     -0.2866
     97  N         -7.4860  -42.3930   31.7770 N.3   209  PRO209     -0.2116
     98  CA        -7.2510  -41.0600   31.2060 C.3   209  PRO209      0.1372
     99  C         -8.3090  -40.0470   31.6970 C.2   209  PRO209      0.2244
    100  O         -9.4060  -40.4480   32.0740 O.2   209  PRO209     -0.2868
    101  CB        -7.3650  -41.3090   29.7040 C.3   209  PRO209      0.0268
    102  CG        -6.9930  -42.7500   29.5710 C.3   209  PRO209      0.0207
    103  CD        -7.7110  -43.3790   30.7120 C.3   209  PRO209      0.0892
    104  N         -4.4530  -38.4840   31.6980 N.3   211  PHE211     -0.1227
    105  CA        -3.2910  -38.7270   32.5120 C.3   211  PHE211      0.1736
    106  C         -2.7340  -37.3540   32.8450 C.2   211  PHE211      0.2595
    107  O         -2.4410  -36.5730   31.9350 O.2   211  PHE211     -0.2718
    108  CB        -2.2740  -39.5430   31.7210 C.3   211  PHE211      0.0547
    109  CG        -2.7280  -40.9380   31.4080 C.ar  211  PHE211     -0.0202
    110  CD1       -3.3040  -41.7310   32.3930 C.ar  211  PHE211     -0.0042
    111  CD2       -2.5340  -41.4820   30.1460 C.ar  211  PHE211     -0.0042
    112  CE1       -3.6740  -43.0520   32.1230 C.ar  211  PHE211     -0.0003
    113  CE2       -2.8990  -42.8020   29.8690 C.ar  211  PHE211     -0.0003
    114  CZ        -3.4670  -43.5850   30.8570 C.ar  211  PHE211     -0.0000
    115  N         -2.6250  -37.0420   34.1370 N.am  212  LEU212     -0.1966
    116  CA        -2.0790  -35.7490   34.5730 C.3   212  LEU212      0.1728
    117  C         -0.5720  -35.8820   34.5110 C.2   212  LEU212      0.2616
    118  O          0.0130  -36.7220   35.1980 O.2   212  LEU212     -0.2715
    119  CB        -2.5160  -35.4450   35.9960 C.3   212  LEU212      0.0311
    120  CG        -4.0360  -35.4610   36.0760 C.3   212  LEU212      0.0022
    121  CD1       -4.4730  -35.1950   37.5110 C.3   212  LEU212      0.0001
    122  CD2       -4.6020  -34.4120   35.1010 C.3   212  LEU212      0.0001
    123  N          0.0610  -35.0470   33.6980 N.am  213  TRP213     -0.1974
    124  CA         1.5010  -35.1480   33.5220 C.3   213  TRP213      0.1640
    125  C          2.2180  -33.8140   33.2880 C.2   213  TRP213      0.2290
    126  O          1.9590  -33.1000   32.3110 O.2   213  TRP213     -0.2864
    127  CB         1.7520  -36.1200   32.3690 C.3   213  TRP213      0.0576
    128  CG         3.1540  -36.3350   32.0370 C.ar  213  TRP213      0.0006
    129  CD1        4.0690  -37.0500   32.7450 C.ar  213  TRP213      0.0946
    130  CD2        3.8270  -35.8250   30.8960 C.ar  213  TRP213      0.0152
    131  NE1        5.2790  -37.0220   32.1070 N.ar  213  TRP213     -0.2442
    132  CE2        5.1580  -36.2800   30.9610 C.ar  213  TRP213      0.0810
    133  CE3        3.4290  -35.0390   29.8080 C.ar  213  TRP213      0.0012
    134  CZ2        6.1090  -35.9520   29.9880 C.ar  213  TRP213      0.0191
    135  CZ3        4.3660  -34.7130   28.8420 C.ar  213  TRP213      0.0001
    136  CH2        5.6920  -35.1770   28.9330 C.ar  213  TRP213      0.0015
    137  N         -3.3730  -35.5400   29.3880 N.3   218  LEU218     -0.1231
    138  CA        -3.3670  -36.4380   28.2320 C.3   218  LEU218      0.1693
    139  C         -4.6190  -37.2910   28.0510 C.2   218  LEU218      0.2592
    140  O         -4.9480  -38.1450   28.8730 O.2   218  LEU218     -0.2718
    141  CB        -2.1290  -37.3320   28.2900 C.3   218  LEU218      0.0284
    142  CG        -0.8110  -36.7620   27.7410 C.3   218  LEU218      0.0019
    143  CD1       -0.8100  -35.2110   27.6700 C.3   218  LEU218      0.0001
    144  CD2        0.3010  -37.3020   28.6200 C.3   218  LEU218      0.0001
    145  N         -5.3110  -37.0310   26.9500 N.am  219  HIS219     -0.1962
    146  CA        -6.5360  -37.7300   26.5900 C.3   219  HIS219      0.1772
    147  C         -6.1460  -38.6390   25.4450 C.2   219  HIS219      0.2462
    148  O         -5.0500  -38.5210   24.9070 O.2   219  HIS219     -0.2730
    149  CB        -7.6140  -36.7400   26.1080 C.3   219  HIS219      0.0785
    150  CG        -7.9960  -35.7080   27.1290 C.ar  219  HIS219      0.0821
    151  ND1       -9.2360  -35.6800   27.7340 N.ar  219  HIS219     -0.2267
    152  CD2       -7.2920  -34.6830   27.6690 C.ar  219  HIS219      0.1154
    153  CE1       -9.2760  -34.6870   28.6060 C.ar  219  HIS219      0.1986
    154  NE2       -8.1070  -34.0660   28.5860 N.ar  219  HIS219     -0.2212
    155  N         -7.0370  -39.5460   25.0440 N.am  220  PRO220     -0.2727
    156  CA        -6.7570  -40.4780   23.9510 C.3   220  PRO220      0.1402
    157  C         -6.4140  -39.8510   22.6080 C.2   220  PRO220      0.2269
    158  O         -5.3920  -40.1900   22.0220 O.2   220  PRO220     -0.2865
    159  CB        -8.0280  -41.3190   23.8770 C.3   220  PRO220      0.0296
    160  CG        -8.5000  -41.3400   25.3160 C.3   220  PRO220      0.0237
    161  CD        -8.3090  -39.8870   25.7110 C.3   220  PRO220      0.0939
    162  N         -1.9850  -35.7220   18.5670 N.3   301  TYR301     -0.1241
    163  CA        -0.7500  -36.4900   18.6980 C.3   301  TYR301      0.1605
    164  C         -0.0500  -36.6610   17.3430 C.2   301  TYR301      0.2264
    165  O         -0.6090  -36.3300   16.2900 O.2   301  TYR301     -0.2867
    166  CB        -1.0400  -37.8380   19.3560 C.3   301  TYR301      0.0534
    167  CG        -1.4870  -37.7110   20.8080 C.ar  301  TYR301     -0.0201
    168  CD1       -0.5780  -37.3760   21.8140 C.ar  301  TYR301     -0.0009
    169  CD2       -2.8050  -37.9580   21.1830 C.ar  301  TYR301     -0.0009
    170  CE1       -0.9670  -37.2980   23.1500 C.ar  301  TYR301      0.0417
    171  CE2       -3.1990  -37.8800   22.5190 C.ar  301  TYR301      0.0417
    172  CZ        -2.2720  -37.5550   23.4920 C.ar  301  TYR301      0.1957
    173  OH        -2.6410  -37.5170   24.8130 O.3   301  TYR301     -0.2866
@<TRIPOS>BOND
     1   165   164    2
     2    33    32    1
     3    28    27    2
     4    21    22    1
     5    21    20    1
     6   164   163    1
     7    31    32    1
     8    31    30    1
     9    22    23    1
    10    42    41    1
    11    29    30    1
    12    29    26    1
    13    20    17    1
    14    25    26    1
    15    25    18   am
    16    27    26    1
    17    27    34   am
    18    17    18    1
    19    17    16    1
    20   162   163    1
    21   163   166    1
    22    41    40    1
    23    18    19    2
    24    23    24    1
    25    35    36    1
    26    35    34    1
    27    35    38    1
    28    36    37    2
    29    40    39    1
    30   166   167    1
    31    11    10    2
    32    16    10   am
    33    10     9    1
    34    38    39    1
    35   167   169   ar
    36   167   168   ar
    37     8     9    1
    38     9    12    1
    39   169   171   ar
    40    56    54    1
    41   168   170   ar
    42   158   157    2
    43    96    95    2
    44    12    13    1
    45    95    94    1
    46    50    51    1
    47    55    54    1
    48   171   172   ar
    49   157   156    1
    50    54    51    1
    51    51    52    1
    52   170   172   ar
    53   172   173    1
    54    94    93    1
    55    13    15    1
    56    13    14    1
    57   159   156    1
    58   159   160    1
    59   156   155    1
    60    49    47    1
    61    52    53    2
    62    43    44    1
    63   148   147    2
    64   155   147   am
    65   155   161    1
    66   160   161    1
    67   147   146    1
    68    44    47    1
    69    44    45    1
    70    47    48    1
    71     5     2    1
    72     5     6    1
    73     3     2    1
    74     3     4    2
    75   149   146    1
    76   149   150    1
    77     2     1    1
    78   146   145    1
    79    45    46    2
    80   145   139   am
    81     6     7    1
    82   150   152   ar
    83   150   151   ar
    84   152   154   ar
    85   143   142    1
    86   151   153   ar
    87   142   141    1
    88   142   144    1
    89     1     7    1
    90    84    83    2
    91   139   138    1
    92   139   140    2
    93    57    58    1
    94   138   141    1
    95   138   137    1
    96    83    82    1
    97    61    58    1
    98    61    62    1
    99   154   153   ar
   100    58    59    1
   101   135   136   ar
   102   135   133   ar
   103    64    62   ar
   104    64    66   ar
   105   136   134   ar
   106    62    63   ar
   107    85    82    1
   108    85    86    1
   109    66    67   ar
   110   102   101    1
   111   102   103    1
   112   101    98    1
   113    82    81    1
   114   133   130   ar
   115   113   111   ar
   116   113   114   ar
   117   134   132   ar
   118    63    65   ar
   119   111   109   ar
   120    59    60    2
   121    67    65   ar
   122    67    68    1
   123    86    88   ar
   124    86    87   ar
   125   103    97    1
   126    88    90   ar
   127   114   112   ar
   128   130   132   ar
   129   130   128   ar
   130   132   131   ar
   131    98    99    1
   132    98    97    1
   133   109   108    1
   134   109   110   ar
   135    99   100    2
   136   104   105    1
   137   108   105    1
   138    87    89   ar
   139    90    91   ar
   140   107   106    2
   141   128   127    1
   142   128   129   ar
   143   131   129   ar
   144   112   110   ar
   145   126   125    2
   146   127   124    1
   147   105   106    1
   148   106   115   am
   149    89    91   ar
   150    91    92    1
   151   125   124    1
   152   124   123    1
   153   123   117   am
   154    69    70    1
   155    73    70    1
   156    73    74    1
   157   115   116    1
   158   117   116    1
   159   117   118    2
   160   116   119    1
   161    70    71    1
   162    74    76   ar
   163    74    75   ar
   164    76    78   ar
   165   122   120    1
   166    75    77   ar
   167    78    79   ar
   168   119   120    1
   169   120   121    1
   170    77    79   ar
   171    79    80    1
   172    71    72    2
