@<TRIPOS>MOLECULE
tmp/1epbB00.pdb
 188 172 0 0 0
SMALL
GASTEIGER

@<TRIPOS>ATOM
      1  N        -21.5520    6.0620   52.6720 N.3     6  PHE6       -0.1241
      2  CA       -20.2730    5.4160   52.4560 C.3     6  PHE6        0.1605
      3  C        -20.0270    4.3770   53.5480 C.2     6  PHE6        0.2264
      4  O        -20.4990    4.5620   54.6700 O.2     6  PHE6       -0.2867
      5  CB       -19.2630    6.5260   52.4610 C.3     6  PHE6        0.0534
      6  CG       -17.8510    6.1440   52.1400 C.ar    6  PHE6       -0.0203
      7  CD1      -17.4430    6.1220   50.8490 C.ar    6  PHE6       -0.0042
      8  CD2      -16.9750    5.7940   53.1540 C.ar    6  PHE6       -0.0042
      9  CE1      -16.1490    5.7430   50.5550 C.ar    6  PHE6       -0.0003
     10  CE2      -15.6780    5.4160   52.8420 C.ar    6  PHE6       -0.0003
     11  CZ       -15.2590    5.3850   51.5430 C.ar    6  PHE6       -0.0000
     12  N        -16.5690    2.0810   54.5910 N.3     8  ILE8       -0.1245
     13  CA       -15.2060    1.7240   54.2440 C.3     8  ILE8        0.1561
     14  C        -15.0750    0.2320   53.9240 C.2     8  ILE8        0.2260
     15  O        -14.2230   -0.1290   53.1120 O.2     8  ILE8       -0.2867
     16  CB       -14.2350    2.1620   55.4040 C.3     8  ILE8        0.0252
     17  CG1      -12.8260    2.2620   54.7850 C.3     8  ILE8        0.0019
     18  CG2      -14.1800    1.1960   56.5900 C.3     8  ILE8        0.0019
     19  CD1      -12.6620    3.1420   53.5120 C.3     8  ILE8        0.0001
     20  N        -14.4980   -0.7930   50.4620 N.3    11  PHE11      -0.1241
     21  CA       -13.3520   -0.1910   49.7670 C.3    11  PHE11       0.1605
     22  C        -11.9870   -0.7350   50.1570 C.2    11  PHE11       0.2264
     23  O        -10.9360   -0.2100   49.7770 O.2    11  PHE11      -0.2867
     24  CB       -13.4080    1.3390   50.0230 C.3    11  PHE11       0.0534
     25  CG       -14.6240    2.0120   49.3790 C.ar   11  PHE11      -0.0203
     26  CD1      -14.5500    2.4320   48.0620 C.ar   11  PHE11      -0.0042
     27  CD2      -15.8090    2.1450   50.0810 C.ar   11  PHE11      -0.0042
     28  CE1      -15.6630    2.9780   47.4320 C.ar   11  PHE11      -0.0003
     29  CE2      -16.9180    2.6990   49.4230 C.ar   11  PHE11      -0.0003
     30  CZ       -16.8580    3.1190   48.0900 C.ar   11  PHE11      -0.0000
     31  N         -6.1470   -1.0460   45.0130 N.3    15  TRP15      -0.1241
     32  CA        -6.6380   -0.0720   44.0580 C.3    15  TRP15       0.1605
     33  C         -5.5130    0.4810   43.2100 C.2    15  TRP15       0.2264
     34  O         -4.4340    0.7350   43.7030 O.2    15  TRP15      -0.2867
     35  CB        -7.3130    1.1130   44.7740 C.3    15  TRP15       0.0550
     36  CG        -8.5830    0.8440   45.5880 C.ar   15  TRP15       0.0003
     37  CD1       -8.4900    0.4390   46.8930 C.ar   15  TRP15       0.0946
     38  CD2       -9.8920    0.9890   45.1410 C.ar   15  TRP15       0.0152
     39  NE1       -9.7220    0.3210   47.2660 N.ar   15  TRP15      -0.2442
     40  CE2      -10.5950    0.6350   46.2840 C.ar   15  TRP15       0.0810
     41  CE3      -10.5650    1.3750   43.9650 C.ar   15  TRP15       0.0012
     42  CZ2      -11.9860    0.6550   46.3070 C.ar   15  TRP15       0.0191
     43  CZ3      -11.9540    1.4010   43.9880 C.ar   15  TRP15       0.0001
     44  CH2      -12.6540    1.0460   45.1530 C.ar   15  TRP15       0.0015
     45  N         -2.5280    1.6490   45.5840 N.3    39  MET39      -0.1245
     46  CA        -2.7320    1.6610   46.9920 C.3    39  MET39       0.1570
     47  C         -3.3820    0.3900   47.5600 C.2    39  MET39       0.2261
     48  O         -4.2660   -0.2030   46.9380 O.2    39  MET39      -0.2867
     49  CB        -3.5700    2.8970   47.2690 C.3    39  MET39       0.0387
     50  CG        -4.0760    2.9600   48.6800 C.3    39  MET39       0.0595
     51  SD        -4.1880    4.6740   49.1700 S.3    39  MET39      -0.1393
     52  CE        -2.4570    4.7200   49.5080 C.3    39  MET39       0.0692
     53  N         -5.6000   -0.5570   51.0200 N.3    41  VAL41      -0.1245
     54  CA        -6.3500   -0.0190   52.1380 C.3    41  VAL41       0.1561
     55  C         -6.6510   -1.1200   53.1610 C.2    41  VAL41       0.2260
     56  O         -7.3520   -2.1110   52.9000 O.2    41  VAL41      -0.2867
     57  CB        -7.6620    0.6010   51.6100 C.3    41  VAL41       0.0252
     58  CG1       -8.3700    1.2230   52.7810 C.3    41  VAL41       0.0019
     59  CG2       -7.3960    1.5860   50.4540 C.3    41  VAL41       0.0019
     60  N         -7.1150    3.5640   59.3960 N.3    48  LEU48      -0.1245
     61  CA        -7.0050    3.1240   58.0080 C.3    48  LEU48       0.1561
     62  C         -5.5120    3.1530   57.7670 C.2    48  LEU48       0.2260
     63  O         -4.8430    4.1830   57.9660 O.2    48  LEU48      -0.2867
     64  CB        -7.7110    4.1090   57.0610 C.3    48  LEU48       0.0270
     65  CG        -8.7810    3.6140   56.0680 C.3    48  LEU48       0.0019
     66  CD1       -9.8500    2.7560   56.7840 C.3    48  LEU48       0.0001
     67  CD2       -9.3960    4.8170   55.3870 C.3    48  LEU48       0.0001
     68  N         -2.8130    2.6880   55.0460 N.3    50  LEU50      -0.1245
     69  CA        -2.7330    2.7650   53.6060 C.3    50  LEU50       0.1561
     70  C         -1.2810    2.5150   53.2450 C.2    50  LEU50       0.2260
     71  O         -0.3720    2.9730   53.9650 O.2    50  LEU50      -0.2867
     72  CB        -3.1490    4.1550   53.1260 C.3    50  LEU50       0.0270
     73  CG        -4.3270    4.8930   53.8370 C.3    50  LEU50       0.0019
     74  CD1       -3.9830    6.3420   53.7960 C.3    50  LEU50       0.0001
     75  CD2       -5.6950    4.6540   53.2070 C.3    50  LEU50       0.0001
     76  N          1.0980    4.7260   55.6620 N.3    65  VAL65      -0.1245
     77  CA         0.6830    5.9510   56.3130 C.3    65  VAL65       0.1561
     78  C         -0.6280    5.6540   57.0070 C.2    65  VAL65       0.2260
     79  O         -1.2540    4.6400   56.6740 O.2    65  VAL65      -0.2867
     80  CB         0.6680    6.9580   55.1390 C.3    65  VAL65       0.0252
     81  CG1       -0.6820    7.1220   54.5060 C.3    65  VAL65       0.0019
     82  CG2        1.3230    8.2020   55.6830 C.3    65  VAL65       0.0019
     83  N         -4.6770    6.8720   58.3290 N.3    67  ALA67      -0.1245
     84  CA        -5.6760    7.8790   58.2620 C.3    67  ALA67       0.1562
     85  C         -6.7310    7.6170   59.3270 C.2    67  ALA67       0.2260
     86  O         -6.9750    6.4440   59.7040 O.2    67  ALA67      -0.2867
     87  CB        -6.2450    7.8270   56.9020 C.3    67  ALA67       0.0290
     88  N        -11.6240   11.8480   55.7040 N.3    76  PHE76      -0.1241
     89  CA       -10.5270   11.2460   56.3940 C.3    76  PHE76       0.1605
     90  C         -9.4890   12.3240   56.5800 C.2    76  PHE76       0.2264
     91  O         -9.4370   13.3200   55.8360 O.2    76  PHE76      -0.2867
     92  CB        -9.9440   10.0880   55.5650 C.3    76  PHE76       0.0534
     93  CG       -10.9130    8.9400   55.4230 C.ar   76  PHE76      -0.0203
     94  CD1      -11.0060    8.0100   56.4450 C.ar   76  PHE76      -0.0042
     95  CD2      -11.7820    8.8890   54.3370 C.ar   76  PHE76      -0.0042
     96  CE1      -11.9790    7.0420   56.3900 C.ar   76  PHE76      -0.0003
     97  CE2      -12.7640    7.9170   54.2740 C.ar   76  PHE76      -0.0003
     98  CZ       -12.8550    6.9970   55.3150 C.ar   76  PHE76      -0.0000
     99  N         -5.2010   12.7060   57.3680 N.3    78  VAL78      -0.1245
    100  CA        -3.9290   12.0120   57.5480 C.3    78  VAL78       0.1561
    101  C         -2.9300   13.0820   57.9260 C.2    78  VAL78       0.2260
    102  O         -3.0020   14.1860   57.3610 O.2    78  VAL78      -0.2867
    103  CB        -3.5420   11.1730   56.2210 C.3    78  VAL78       0.0252
    104  CG1       -4.2650   11.7130   55.0290 C.3    78  VAL78       0.0019
    105  CG2       -2.0440   11.1660   55.9650 C.3    78  VAL78       0.0019
    106  N          1.0490   14.2100   58.3450 N.3    80  ARG80      -0.1245
    107  CA         2.3740   13.7000   58.0610 C.3    80  ARG80       0.1563
    108  C          3.3140   14.7540   58.6510 C.2    80  ARG80       0.2260
    109  O          2.8040   15.8050   59.0260 O.2    80  ARG80      -0.2867
    110  CB         2.4970   13.5090   56.5150 C.3    80  ARG80       0.0307
    111  CG         1.4780   12.4780   55.9790 C.3    80  ARG80       0.0489
    112  CD         1.9350   11.7080   54.7390 C.3    80  ARG80       0.2205
    113  NE         1.0840   11.9030   53.5490 N.pl3  80  ARG80      -0.0865
    114  CZ         0.7690   10.9160   52.6780 C.cat  80  ARG80       0.5346
    115  NH1        1.2060    9.6610   52.8350 N.pl3  80  ARG80       0.1354
    116  NH2        0.0400   11.1930   51.5970 N.pl3  80  ARG80       0.1354
    117  N         -3.4910   16.4150   55.6570 N.3    85  LYS85      -0.1245
    118  CA        -4.3510   16.2620   54.5040 C.3    85  LYS85       0.1561
    119  C         -5.7790   15.8800   54.8620 C.2    85  LYS85       0.2260
    120  O         -6.0660   15.0170   55.7070 O.2    85  LYS85      -0.2867
    121  CB        -3.8360   15.2040   53.5490 C.3    85  LYS85       0.0271
    122  CG        -2.8120   15.7210   52.5720 C.3    85  LYS85       0.0035
    123  CD        -2.1240   14.5300   51.9790 C.3    85  LYS85       0.0206
    124  CE        -0.8240   14.9560   51.3410 C.3    85  LYS85       0.1093
    125  NZ        -1.1640   15.6070   50.1020 N.3    85  LYS85      -0.1314
    126  N         -8.9090   14.3940   53.0590 N.3    87  VAL87      -0.1245
    127  CA        -9.3290   13.7280   51.8250 C.3    87  VAL87       0.1561
    128  C        -10.7980   13.3920   51.9530 C.2    87  VAL87       0.2260
    129  O        -11.3170   13.0080   52.9970 O.2    87  VAL87      -0.2867
    130  CB        -8.4500   12.4150   51.4460 C.3    87  VAL87       0.0252
    131  CG1       -7.3580   12.2550   52.4740 C.3    87  VAL87       0.0019
    132  CG2       -9.3110   11.1600   51.2170 C.3    87  VAL87       0.0019
    133  N        -14.2550   11.6900   49.7340 N.3    89  VAL89      -0.1245
    134  CA       -14.7200   10.9820   48.5520 C.3    89  VAL89       0.1561
    135  C        -15.8940   11.7680   47.9080 C.2    89  VAL89       0.2260
    136  O        -17.0110   11.9430   48.4260 O.2    89  VAL89      -0.2867
    137  CB       -15.1950    9.5340   48.8880 C.3    89  VAL89       0.0252
    138  CG1      -15.8270    8.9090   47.6160 C.3    89  VAL89       0.0019
    139  CG2      -14.0110    8.7030   49.4410 C.3    89  VAL89       0.0019
    140  N        -13.3790    5.0850   42.6330 N.3    98  ALA98      -0.1245
    141  CA       -13.6270    6.1710   43.5820 C.3    98  ALA98       0.1562
    142  C        -12.8470    7.4200   43.1630 C.2    98  ALA98       0.2260
    143  O        -11.6650    7.3280   42.8120 O.2    98  ALA98      -0.2867
    144  CB       -13.1970    5.7590   45.0270 C.3    98  ALA98       0.0290
    145  N        -11.3830   10.8440   44.6050 N.3   100  ILE100     -0.1245
    146  CA       -10.9330   11.4490   45.8520 C.3   100  ILE100      0.1561
    147  C        -10.4640   12.9150   45.6460 C.2   100  ILE100      0.2260
    148  O         -9.9060   13.3030   44.6060 O.2   100  ILE100     -0.2867
    149  CB        -9.8570   10.3550   46.3610 C.3   100  ILE100      0.0252
    150  CG1      -10.6020    9.5130   47.4090 C.3   100  ILE100      0.0019
    151  CG2       -8.5740   10.8580   46.9830 C.3   100  ILE100      0.0019
    152  CD1      -11.7340    8.6380   46.8420 C.3   100  ILE100      0.0001
    153  N         -8.2110   15.8070   47.6340 N.3   102  ILE102     -0.1245
    154  CA        -7.1700   15.9650   48.6450 C.3   102  ILE102      0.1561
    155  C         -6.7640   17.4590   48.8300 C.2   102  ILE102      0.2260
    156  O         -6.2960   18.1320   47.8930 O.2   102  ILE102     -0.2867
    157  CB        -5.9500   15.0860   48.2130 C.3   102  ILE102      0.0252
    158  CG1       -6.3390   13.6060   48.1420 C.3   102  ILE102      0.0019
    159  CG2       -4.8000   15.3270   49.1850 C.3   102  ILE102      0.0019
    160  CD1       -5.3980   12.7460   47.2940 C.3   102  ILE102      0.0001
    161  N         -5.5410   18.3630   45.0070 N.3   113  THR113     -0.1218
    162  CA        -5.2790   17.3300   44.0250 C.3   113  THR113      0.1862
    163  C         -6.4880   16.4120   44.0530 C.2   113  THR113      0.2287
    164  O         -7.0750   16.0970   45.1080 O.2   113  THR113     -0.2866
    165  CB        -3.9770   16.5830   44.4060 C.3   113  THR113      0.1770
    166  OG1       -3.0080   17.6220   44.3480 O.3   113  THR113     -0.2211
    167  CG2       -3.5220   15.4320   43.5050 C.3   113  THR113      0.0375
    168  N         -7.7930   12.5850   42.6770 N.3   115  LYS115     -0.1245
    169  CA        -7.2850   11.3130   42.1600 C.3   115  LYS115      0.1561
    170  C         -8.4000   10.3150   41.8630 C.2   115  LYS115      0.2260
    171  O         -9.4740   10.3010   42.4790 O.2   115  LYS115     -0.2867
    172  CB        -6.3150   10.6690   43.1540 C.3   115  LYS115      0.0271
    173  CG        -4.9670   11.3570   43.2660 C.3   115  LYS115      0.0035
    174  CD        -3.9740   10.6500   44.1720 C.3   115  LYS115      0.0206
    175  CE        -2.7400   11.5000   43.8680 C.3   115  LYS115      0.1093
    176  NZ        -1.4790   10.9090   44.2790 N.3   115  LYS115     -0.1314
    177  N         -9.1940    6.4560   41.6190 N.3   117  TYR117     -0.1241
    178  CA        -8.8290    5.0890   41.9410 C.3   117  TYR117      0.1605
    179  C         -9.7780    4.1240   41.2790 C.2   117  TYR117      0.2264
    180  O        -10.9940    4.3150   41.1760 O.2   117  TYR117     -0.2867
    181  CB        -8.8570    4.8260   43.4260 C.3   117  TYR117      0.0534
    182  CG        -7.5620    5.4220   43.9400 C.ar  117  TYR117     -0.0201
    183  CD1       -7.4790    6.7890   44.2650 C.ar  117  TYR117     -0.0009
    184  CD2       -6.4560    4.6070   44.0340 C.ar  117  TYR117     -0.0009
    185  CE1       -6.2700    7.3030   44.6840 C.ar  117  TYR117      0.0417
    186  CE2       -5.2470    5.1240   44.4360 C.ar  117  TYR117      0.0417
    187  CZ        -5.1730    6.4610   44.7570 C.ar  117  TYR117      0.1957
    188  OH        -3.9610    6.9680   45.1590 O.3   117  TYR117     -0.2866
@<TRIPOS>BOND
     1   180   179    2
     2   179   178    1
     3   177   178    1
     4   170   169    1
     5   170   171    2
     6   178   181    1
     7   169   168    1
     8   169   172    1
     9   140   141    1
    10   143   142    2
    11   172   173    1
    12   142   141    1
    13    33    34    2
    14    33    32    1
    15   173   174    1
    16   181   182    1
    17   167   165    1
    18   141   144    1
    19   175   174    1
    20   175   176    1
    21   182   184   ar
    22   182   183   ar
    23    41    43   ar
    24    41    38   ar
    25    43    44   ar
    26   162   163    1
    27   162   165    1
    28   162   161    1
    29   184   186   ar
    30   163   164    2
    31    32    35    1
    32    32    31    1
    33   183   185   ar
    34   166   165    1
    35   186   187   ar
    36   145   146    1
    37   148   147    2
    38   185   187   ar
    39   187   188    1
    40    35    36    1
    41    38    36   ar
    42    38    40   ar
    43    44    42   ar
    44    45    46    1
    45    36    37   ar
    46   147   146    1
    47   146   149    1
    48    40    42   ar
    49    40    39   ar
    50   149   151    1
    51   149   150    1
    52   152   150    1
    53    37    39   ar
    54    48    47    2
    55    46    49    1
    56    46    47    1
    57    49    50    1
    58   160   158    1
    59    28    26   ar
    60    28    30   ar
    61   138   137    1
    62   153   154    1
    63   156   155    2
    64   135   136    2
    65   135   134    1
    66    26    25   ar
    67    30    29   ar
    68   158   157    1
    69   157   154    1
    70   157   159    1
    71   134   137    1
    72   134   133    1
    73   154   155    1
    74    50    51    1
    75   137   139    1
    76    51    52    1
    77    25    24    1
    78    25    27   ar
    79    29    27   ar
    80    21    24    1
    81    21    22    1
    82    21    20    1
    83    23    22    2
    84   125   124    1
    85    59    57    1
    86     9     7   ar
    87     9    11   ar
    88     7     6   ar
    89    53    54    1
    90   132   130    1
    91   124   123    1
    92   130   127    1
    93   130   131    1
    94    11    10   ar
    95   116   114    1
    96    57    54    1
    97    57    58    1
    98   127   128    1
    99   127   126    1
   100   128   129    2
   101   123   122    1
   102    54    55    1
   103     6     5    1
   104     6     8   ar
   105     2     5    1
   106     2     1    1
   107     2     3    1
   108   122   121    1
   109   114   115    1
   110   114   113    2
   111    10     8   ar
   112    56    55    2
   113    15    14    2
   114    72    69    1
   115    72    73    1
   116    75    73    1
   117    70    69    1
   118    70    71    2
   119    19    17    1
   120     3     4    2
   121   121   118    1
   122   113   112    1
   123    69    68    1
   124    74    73    1
   125    14    13    1
   126    13    12    1
   127    13    16    1
   128    97    95   ar
   129    97    98   ar
   130    95    93   ar
   131   118   119    1
   132   118   117    1
   133    81    80    1
   134   112   111    1
   135    17    16    1
   136   119   120    2
   137   104   103    1
   138    80    82    1
   139    80    77    1
   140    98    96   ar
   141    67    65    1
   142    16    18    1
   143    93    92    1
   144    93    94   ar
   145    92    89    1
   146    76    77    1
   147    88    89    1
   148    91    90    2
   149   105   103    1
   150   111   110    1
   151    65    66    1
   152    65    64    1
   153   103   100    1
   154    77    78    1
   155    96    94   ar
   156    89    90    1
   157   110   107    1
   158    79    78    2
   159    87    84    1
   160    64    61    1
   161   102   101    2
   162    99   100    1
   163   100   101    1
   164    62    63    2
   165    62    61    1
   166    61    60    1
   167   107   106    1
   168   107   108    1
   169    84    83    1
   170    84    85    1
   171   108   109    2
   172    85    86    2
