@<TRIPOS>MOLECULE
tmp/1epqA00.pdb
 201 186 0 0 0
SMALL
GASTEIGER

@<TRIPOS>ATOM
      1  N         13.8560   21.9880   18.9940 N.3    10  ILE10      -0.1245
      2  CA        14.2040   22.5130   20.3360 C.3    10  ILE10       0.1561
      3  C         13.8480   21.4890   21.4070 C.2    10  ILE10       0.2260
      4  O         14.3690   21.5930   22.5290 O.2    10  ILE10      -0.2867
      5  CB        13.5860   23.8350   20.6270 C.3    10  ILE10       0.0252
      6  CG1       12.0530   23.7750   20.6440 C.3    10  ILE10       0.0019
      7  CG2       14.1040   24.9520   19.7520 C.3    10  ILE10       0.0019
      8  CD1       11.4160   25.0060   21.2750 C.3    10  ILE10       0.0001
      9  N          8.5670   21.1930   18.4900 N.3    15  ASP15      -0.1225
     10  CA         7.7830   22.4300   18.6110 C.3    15  ASP15       0.1805
     11  C          8.3380   23.5500   17.7440 C.2    15  ASP15       0.2597
     12  O          7.5250   24.3620   17.2870 O.2    15  ASP15      -0.2718
     13  CB         7.6880   22.8980   20.0660 C.3    15  ASP15       0.1424
     14  CG         6.6380   22.1020   20.8450 C.2    15  ASP15       0.3668
     15  OD1        5.4980   21.9330   20.4240 O.co2  15  ASP15      -0.2456
     16  OD2        6.9510   21.6130   21.9600 O.co2  15  ASP15      -0.2456
     17  N          9.6300   23.6240   17.5270 N.am   16  ALA16      -0.1979
     18  CA        10.2640   24.7580   16.7870 C.3    16  ALA16       0.1597
     19  C         11.6720   24.2790   16.3730 C.2    16  ALA16       0.2287
     20  O         12.0860   23.2610   16.9740 O.2    16  ALA16      -0.2864
     21  CB        10.3760   25.9860   17.6700 C.3    16  ALA16       0.0319
     22  N         15.3310   31.1940   15.7730 N.3    33  ASP33      -0.1239
     23  CA        14.2060   30.5470   15.0680 C.3    33  ASP33       0.1674
     24  C         13.9150   31.2440   13.7480 C.2    33  ASP33       0.2266
     25  O         13.4190   32.3670   13.6960 O.2    33  ASP33      -0.2867
     26  CB        12.9790   30.5710   16.0000 C.3    33  ASP33       0.1410
     27  CG        11.8170   29.7060   15.5560 C.2    33  ASP33       0.3668
     28  OD1       11.5970   29.3850   14.4010 O.co2  33  ASP33      -0.2456
     29  OD2       11.0000   29.2870   16.4430 O.co2  33  ASP33      -0.2456
     30  N         11.8940   32.0920   10.7430 N.3    35  ASP35      -0.1239
     31  CA        10.4290   32.2610   10.7550 C.3    35  ASP35       0.1674
     32  C          9.9410   32.8570    9.4500 C.2    35  ASP35       0.2266
     33  O         10.1140   34.0580    9.2180 O.2    35  ASP35      -0.2867
     34  CB        10.0420   33.2080   11.9170 C.3    35  ASP35       0.1410
     35  CG         8.5460   33.4550   11.9220 C.2    35  ASP35       0.3668
     36  OD1        7.7570   32.6560   11.4050 O.co2  35  ASP35      -0.2456
     37  OD2        8.1020   34.4810   12.4520 O.co2  35  ASP35      -0.2456
     38  N          7.0770   33.4330    8.6610 N.3    37  GLY37      -0.1225
     39  CA         5.8350   34.2350    8.7910 C.3    37  GLY37       0.1811
     40  C          6.0860   35.6160    9.3230 C.2    37  GLY37       0.2280
     41  O          5.1000   36.3550    9.6100 O.2    37  GLY37      -0.2866
     42  N          3.1570   38.4810   17.8510 N.3    79  TYR79      -0.1227
     43  CA         2.9820   37.3230   16.9490 C.3    79  TYR79       0.1736
     44  C          1.5970   36.6940   17.1600 C.2    79  TYR79       0.2596
     45  O          0.8610   37.1340   18.0180 O.2    79  TYR79      -0.2718
     46  CB         3.9680   36.1580   17.3420 C.3    79  TYR79       0.0548
     47  CG         5.3590   36.6120   16.9370 C.ar   79  TYR79      -0.0200
     48  CD1        5.8150   36.5580   15.6490 C.ar   79  TYR79      -0.0009
     49  CD2        6.1780   37.1090   17.9720 C.ar   79  TYR79      -0.0009
     50  CE1        7.1100   36.9950   15.3270 C.ar   79  TYR79       0.0417
     51  CE2        7.4460   37.5410   17.6770 C.ar   79  TYR79       0.0417
     52  CZ         7.9110   37.4820   16.3500 C.ar   79  TYR79       0.1957
     53  OH         9.1870   37.9300   16.1180 O.3    79  TYR79      -0.2866
     54  N          1.3220   35.6800   16.3580 N.am   80  GLY80      -0.1942
     55  CA        -0.0240   35.1120   16.2630 C.3    80  GLY80       0.2014
     56  C         -0.4460   34.4760   17.5720 C.2    80  GLY80       0.2638
     57  O         -1.6280   34.4150   17.9080 O.2    80  GLY80      -0.2714
     58  N          0.5160   34.0060   18.3380 N.am   81  ASP81      -0.1971
     59  CA         0.2460   33.5200   19.6820 C.3    81  ASP81       0.1709
     60  C          0.3250   34.5450   20.7780 C.2    81  ASP81       0.2293
     61  O          0.2450   34.0900   21.9490 O.2    81  ASP81      -0.2864
     62  CB         1.2070   32.3580   19.9920 C.3    81  ASP81       0.1436
     63  CG         2.6540   32.8790   20.0580 C.2    81  ASP81       0.3671
     64  OD1        2.9340   34.0580   20.1900 O.co2  81  ASP81      -0.2456
     65  OD2        3.5470   32.0150   19.9760 O.co2  81  ASP81      -0.2456
     66  N          2.6690   36.6190   21.7790 N.3    83  SER83      -0.1217
     67  CA         3.9760   37.0590   22.2630 C.3    83  SER83       0.1889
     68  C          4.4690   38.2680   21.5280 C.2    83  SER83       0.2288
     69  O          4.0310   38.5650   20.4100 O.2    83  SER83      -0.2866
     70  CB         4.9420   35.9240   22.3520 C.3    83  SER83       0.2089
     71  OG         5.3250   35.5000   21.0470 O.3    83  SER83      -0.2183
     72  N          6.5370   34.5030   27.4630 N.3   115  SER115     -0.1202
     73  CA         6.7800   33.2380   26.7400 C.3   115  SER115      0.2020
     74  C          8.2340   33.2000   26.2560 C.2   115  SER115      0.2618
     75  O          8.8100   32.1340   26.2460 O.2   115  SER115     -0.2717
     76  CB         5.8140   33.0420   25.6120 C.3   115  SER115      0.2103
     77  OG         5.5610   34.2790   24.9490 O.3   115  SER115     -0.2182
     78  N          8.7710   34.3470   25.8870 N.am  116  PHE116     -0.1975
     79  CA        10.1560   34.3920   25.3450 C.3   116  PHE116      0.1639
     80  C         11.1280   34.1230   26.4450 C.2   116  PHE116      0.2290
     81  O         12.0520   33.3150   26.3970 O.2   116  PHE116     -0.2864
     82  CB        10.3510   35.6160   24.5140 C.3   116  PHE116      0.0560
     83  CG         9.7240   35.6400   23.1300 C.ar  116  PHE116     -0.0200
     84  CD1       10.0840   34.7490   22.1110 C.ar  116  PHE116     -0.0042
     85  CD2        8.7320   36.5880   22.7980 C.ar  116  PHE116     -0.0042
     86  CE1        9.4700   34.8270   20.8610 C.ar  116  PHE116     -0.0003
     87  CE2        8.1110   36.6750   21.5520 C.ar  116  PHE116     -0.0003
     88  CZ         8.4960   35.7610   20.5550 C.ar  116  PHE116     -0.0000
     89  N         11.4360   30.4750   27.4050 N.3   119  ASP119     -0.1239
     90  CA        11.9320   29.4520   26.4230 C.3   119  ASP119      0.1674
     91  C         13.4370   29.6420   26.2520 C.2   119  ASP119      0.2266
     92  O         13.8650   30.5170   25.5290 O.2   119  ASP119     -0.2867
     93  CB        11.2510   29.6720   25.0680 C.3   119  ASP119      0.1410
     94  CG        11.3600   28.4110   24.2040 C.2   119  ASP119      0.3668
     95  OD1       11.4020   27.2980   24.7560 O.co2 119  ASP119     -0.2456
     96  OD2       11.4160   28.4990   22.9670 O.co2 119  ASP119     -0.2456
     97  N         15.6580   29.4990   22.6110 N.3   122  ILE122     -0.1245
     98  CA        15.4580   30.4300   21.4730 C.3   122  ILE122      0.1561
     99  C         16.0530   31.7690   21.8840 C.2   122  ILE122      0.2260
    100  O         15.5990   32.3780   22.8600 O.2   122  ILE122     -0.2867
    101  CB        13.9840   30.5400   21.1100 C.3   122  ILE122      0.0252
    102  CG1       13.5230   29.1570   20.5360 C.3   122  ILE122      0.0019
    103  CG2       13.7460   31.5940   20.0100 C.3   122  ILE122      0.0019
    104  CD1       12.0300   29.1840   20.1880 C.3   122  ILE122      0.0001
    105  N         14.7920   35.6120   16.7640 N.3   125  LEU125     -0.1245
    106  CA        14.0950   35.2270   15.5580 C.3   125  LEU125      0.1561
    107  C         14.7970   35.7510   14.3160 C.2   125  LEU125      0.2260
    108  O         15.3690   36.8360   14.3330 O.2   125  LEU125     -0.2867
    109  CB        12.6600   35.7930   15.5790 C.3   125  LEU125      0.0270
    110  CG        11.6910   34.7290   16.0370 C.3   125  LEU125      0.0019
    111  CD1       11.6460   34.5420   17.5130 C.3   125  LEU125      0.0001
    112  CD2       10.3520   34.7480   15.3480 C.3   125  LEU125      0.0001
    113  N          3.1490   37.6170    3.1410 N.3   194  PHE194     -0.1241
    114  CA         3.5160   36.2430    3.5040 C.3   194  PHE194      0.1605
    115  C          3.9790   35.4650    2.2500 C.2   194  PHE194      0.2264
    116  O          3.7560   35.9660    1.1680 O.2   194  PHE194     -0.2867
    117  CB         2.2380   35.4410    3.9410 C.3   194  PHE194      0.0534
    118  CG         1.7880   35.9970    5.2890 C.ar  194  PHE194     -0.0203
    119  CD1        2.7320   36.0640    6.3090 C.ar  194  PHE194     -0.0042
    120  CD2        0.4760   36.4180    5.4620 C.ar  194  PHE194     -0.0042
    121  CE1        2.3220   36.5660    7.5130 C.ar  194  PHE194     -0.0003
    122  CE2        0.0760   36.9310    6.7090 C.ar  194  PHE194     -0.0003
    123  CZ         1.0130   36.9960    7.7180 C.ar  194  PHE194     -0.0000
    124  N         -0.5730   30.0800    4.2190 N.3   217  ILE217     -0.1245
    125  CA         0.8180   30.5710    4.1720 C.3   217  ILE217      0.1561
    126  C          1.7620   29.4670    4.5330 C.2   217  ILE217      0.2260
    127  O          1.4230   28.6260    5.4000 O.2   217  ILE217     -0.2867
    128  CB         0.9730   31.7800    5.0860 C.3   217  ILE217      0.0252
    129  CG1        0.7970   31.3730    6.5620 C.3   217  ILE217      0.0019
    130  CG2       -0.0860   32.8540    4.7700 C.3   217  ILE217      0.0019
    131  CD1        1.2860   32.4930    7.4950 C.3   217  ILE217      0.0001
    132  N          4.6810   28.5820    6.7570 N.3   219  ASP219     -0.1239
    133  CA         5.2380   29.2240    7.9530 C.3   219  ASP219      0.1674
    134  C          6.0770   28.2870    8.7540 C.2   219  ASP219      0.2266
    135  O          5.5700   27.4870    9.5600 O.2   219  ASP219     -0.2867
    136  CB         4.0350   29.7370    8.8140 C.3   219  ASP219      0.1410
    137  CG         4.5680   30.6390    9.9160 C.2   219  ASP219      0.3668
    138  OD1        5.7770   30.8510   10.0050 O.co2 219  ASP219     -0.2456
    139  OD2        3.8070   31.1640   10.7270 O.co2 219  ASP219     -0.2456
    140  N          7.6710   29.0780   11.3110 N.3   221  GLY221     -0.1210
    141  CA         7.6570   29.4590   12.7450 C.3   221  GLY221      0.1956
    142  C          6.3470   29.0950   13.4130 C.2   221  GLY221      0.2613
    143  O          6.1330   29.5170   14.5640 O.2   221  GLY221     -0.2717
    144  N          5.4880   28.3480   12.7630 N.am  222  THR222     -0.1938
    145  CA         4.2780   27.7870   13.4550 C.3   222  THR222      0.2028
    146  C          4.4220   26.2830   13.5060 C.2   222  THR222      0.2643
    147  O          4.8260   25.6410   12.5510 O.2   222  THR222     -0.2714
    148  CB         3.0390   28.1840   12.6660 C.3   222  THR222      0.1808
    149  OG1        2.7540   29.5810   12.8850 O.3   222  THR222     -0.2208
    150  CG2        1.8240   27.4450   13.1470 C.3   222  THR222      0.0379
    151  N          4.0880   25.6970   14.6630 N.am  223  THR223     -0.1936
    152  CA         4.3310   24.2870   14.9140 C.3   223  THR223      0.2028
    153  C          3.4030   23.4180   14.0510 C.2   223  THR223      0.2642
    154  O          3.8510   22.4870   13.4050 O.2   223  THR223     -0.2714
    155  CB         4.0230   23.9900   16.3930 C.3   223  THR223      0.1808
    156  OG1        4.8120   24.8510   17.2010 O.3   223  THR223     -0.2208
    157  CG2        4.3800   22.5720   16.7080 C.3   223  THR223      0.0379
    158  N          2.1260   23.7360   14.0700 N.am  224  LEU224     -0.1977
    159  CA         1.0960   22.7680   13.6540 C.3   224  LEU224      0.1596
    160  C          0.5830   23.0910   12.2340 C.2   224  LEU224      0.2287
    161  O          1.0250   24.0690   11.6430 O.2   224  LEU224     -0.2864
    162  CB        -0.0660   22.7300   14.6020 C.3   224  LEU224      0.0297
    163  CG         0.3220   22.2850   16.0000 C.3   224  LEU224      0.0022
    164  CD1       -0.8850   22.3560   16.9240 C.3   224  LEU224      0.0001
    165  CD2        0.9890   20.9230   16.0670 C.3   224  LEU224      0.0001
    166  N         -2.7330   24.1340   10.3300 N.3   226  TYR226     -0.1241
    167  CA        -4.0720   24.6580   10.6360 C.3   226  TYR226      0.1605
    168  C         -4.8890   24.8800    9.3570 C.2   226  TYR226      0.2264
    169  O         -4.4700   25.7210    8.5580 O.2   226  TYR226     -0.2867
    170  CB        -3.9810   25.9470   11.3750 C.3   226  TYR226      0.0534
    171  CG        -3.4100   25.8260   12.7810 C.ar  226  TYR226     -0.0201
    172  CD1       -4.2010   25.5580   13.8730 C.ar  226  TYR226     -0.0009
    173  CD2       -2.0180   26.0050   12.9360 C.ar  226  TYR226     -0.0009
    174  CE1       -3.5980   25.4650   15.1590 C.ar  226  TYR226      0.0417
    175  CE2       -1.4350   25.9160   14.1650 C.ar  226  TYR226      0.0417
    176  CZ        -2.2510   25.6400   15.2960 C.ar  226  TYR226      0.1957
    177  OH        -1.5980   25.5660   16.5030 O.3   226  TYR226     -0.2866
    178  N         -7.8500   31.4790   14.0890 N.3   300  ILE300     -0.1245
    179  CA        -6.7070   32.3090   13.6920 C.3   300  ILE300      0.1561
    180  C         -7.0850   33.2420   12.5350 C.2   300  ILE300      0.2260
    181  O         -6.5220   34.3410   12.4700 O.2   300  ILE300     -0.2867
    182  CB        -5.5740   31.4160   13.1940 C.3   300  ILE300      0.0252
    183  CG1       -4.9780   30.5360   14.2330 C.3   300  ILE300      0.0019
    184  CG2       -4.5860   32.1630   12.3430 C.3   300  ILE300      0.0019
    185  CD1       -4.3070   29.2710   13.6430 C.3   300  ILE300      0.0001
    186  N         -6.6400   32.5460    9.3840 N.3   302  ILE302     -0.1245
    187  CA        -5.8240   32.2040    8.1840 C.3   302  ILE302      0.1561
    188  C         -5.3150   30.7810    8.2770 C.2   302  ILE302      0.2260
    189  O         -4.9760   30.2900    9.3750 O.2   302  ILE302     -0.2867
    190  CB        -4.7040   33.1990    8.0470 C.3   302  ILE302      0.0252
    191  CG1       -3.9560   33.1460    6.7540 C.3   302  ILE302      0.0019
    192  CG2       -3.8140   33.2860    9.2510 C.3   302  ILE302      0.0019
    193  CD1       -4.1060   34.3960    5.8870 C.3   302  ILE302      0.0001
    194  N         -2.5950   27.8590    7.9050 N.3   304  ILE304     -0.1245
    195  CA        -1.1260   27.8990    8.0950 C.3   304  ILE304      0.1561
    196  C         -0.5280   26.5470    7.7900 C.2   304  ILE304      0.2260
    197  O         -0.7340   25.6080    8.5770 O.2   304  ILE304     -0.2867
    198  CB        -0.7590   28.3750    9.4820 C.3   304  ILE304      0.0252
    199  CG1       -1.4590   29.6950    9.8070 C.3   304  ILE304      0.0019
    200  CG2        0.7500   28.5200    9.6490 C.3   304  ILE304      0.0019
    201  CD1       -1.2990   30.1120   11.2640 C.3   304  ILE304      0.0001
@<TRIPOS>BOND
     1   116   115    2
     2   115   114    1
     3   113   114    1
     4   114   117    1
     5   117   118    1
     6   125   124    1
     7   125   126    1
     8   125   128    1
     9   126   127    2
    10   130   128    1
    11   128   129    1
    12   118   120   ar
    13   118   119   ar
    14   120   122   ar
    15   193   191    1
    16   119   121   ar
    17   129   131    1
    18   122   123   ar
    19   191   190    1
    20   132   133    1
    21   121   123   ar
    22   196   195    1
    23   196   197    2
    24   194   195    1
    25   133   134    1
    26   133   136    1
    27   190   187    1
    28   190   192    1
    29   195   198    1
    30   187   188    1
    31   187   186    1
    32   188   189    2
    33   169   168    2
    34    38    39    1
    35   134   135    2
    36    39    40    1
    37   136   137    1
    38    33    32    2
    39    40    41    2
    40   168   167    1
    41    32    31    1
    42   198   200    1
    43   198   199    1
    44   199   201    1
    45   137   138   ar
    46   137   139   ar
    47   166   167    1
    48   167   170    1
    49    30    31    1
    50    31    34    1
    51   140   141    1
    52   170   171    1
    53    36    35   ar
    54   161   160    2
    55    34    35    1
    56    35    37   ar
    57   160   159    1
    58   184   182    1
    59   181   180    2
    60   180   179    1
    61   147   146    2
    62   148   149    1
    63   148   150    1
    64   148   145    1
    65   141   142    1
    66   144   142   am
    67   144   145    1
    68   171   173   ar
    69   171   172   ar
    70   173   175   ar
    71   182   179    1
    72   182   183    1
    73   154   153    2
    74   142   143    2
    75   145   146    1
    76   146   151   am
    77   185   183    1
    78   159   158    1
    79   159   162    1
    80   179   178    1
    81    25    24    2
    82    24    23    1
    83   172   174   ar
    84   153   158   am
    85   153   152    1
    86   175   176   ar
    87   107   108    2
    88   107   106    1
    89    28    27   ar
    90   162   163    1
    91   151   152    1
    92   152   155    1
    93    23    22    1
    94    23    26    1
    95   174   176   ar
    96   176   177    1
    97    50    48   ar
    98    50    52   ar
    99   112   110    1
   100    27    26    1
   101    27    29   ar
   102   106   109    1
   103   106   105    1
   104   109   110    1
   105    48    47   ar
   106   163   165    1
   107   163   164    1
   108   110   111    1
   109    53    52    1
   110    55    54    1
   111    55    56    1
   112    52    51   ar
   113    54    44   am
   114    19    18    1
   115    19    20    2
   116   155   157    1
   117   155   156    1
   118    18    17    1
   119    18    21    1
   120    47    46    1
   121    47    49   ar
   122    43    44    1
   123    43    46    1
   124    43    42    1
   125    44    45    2
   126    12    11    2
   127    17    11   am
   128    56    57    2
   129    56    58   am
   130    51    49   ar
   131    11    10    1
   132    58    59    1
   133     9    10    1
   134    10    13    1
   135     1     2    1
   136    59    62    1
   137    59    60    1
   138     7     5    1
   139    65    63   ar
   140    62    63    1
   141   103   101    1
   142    63    64   ar
   143    13    14    1
   144   104   102    1
   145     2     5    1
   146     2     3    1
   147    69    68    2
   148    15    14   ar
   149   102   101    1
   150    88    86   ar
   151    88    87   ar
   152     5     6    1
   153     6     8    1
   154    60    61    2
   155    14    16   ar
   156    86    84   ar
   157    71    70    1
   158   101    98    1
   159     3     4    2
   160    98    99    1
   161    98    97    1
   162    68    67    1
   163    87    85   ar
   164    66    67    1
   165    99   100    2
   166    84    83   ar
   167    67    70    1
   168    85    83   ar
   169    96    94   ar
   170    83    82    1
   171    94    95   ar
   172    94    93    1
   173    82    79    1
   174    77    76    1
   175    93    90    1
   176    79    78    1
   177    79    80    1
   178    92    91    2
   179    76    73    1
   180    78    74   am
   181    75    74    2
   182    91    90    1
   183    74    73    1
   184    81    80    2
   185    90    89    1
   186    73    72    1
