@<TRIPOS>MOLECULE
tmp/1eq2D01.pdb
 246 238 0 0 0
SMALL
GASTEIGER

@<TRIPOS>ATOM
      1  N        -20.9460   35.0280   67.4860 N.3    78  SER78      -0.1217
      2  CA       -22.2800   35.4730   67.1080 C.3    78  SER78       0.1889
      3  C        -22.4300   36.8630   66.4770 C.2    78  SER78       0.2288
      4  O        -23.5060   37.2250   66.0140 O.2    78  SER78      -0.2866
      5  CB       -23.2540   35.2730   68.2700 C.3    78  SER78       0.2089
      6  OG       -22.6570   35.5780   69.5140 O.3    78  SER78      -0.2183
      7  N        -22.8310   39.5350   63.9220 N.3    80  THR80      -0.1218
      8  CA       -23.2210   39.6100   62.5080 C.3    80  THR80       0.1862
      9  C        -22.2770   40.5520   61.7500 C.2    80  THR80       0.2287
     10  O        -22.2760   40.5800   60.5280 O.2    80  THR80      -0.2866
     11  CB       -24.6600   40.1700   62.2970 C.3    80  THR80       0.1770
     12  OG1      -24.8510   41.3440   63.0920 O.3    80  THR80      -0.2211
     13  CG2      -25.7010   39.1440   62.6790 C.3    80  THR80       0.0375
     14  N        -29.4720   29.8760   63.4580 N.3   115  SER115     -0.1202
     15  CA       -29.8010   31.2970   63.5370 C.3   115  SER115      0.2020
     16  C        -30.8200   31.7210   62.4870 C.2   115  SER115      0.2619
     17  O        -30.7850   31.2300   61.3560 O.2   115  SER115     -0.2717
     18  CB       -28.5160   32.1270   63.3610 C.3   115  SER115      0.2103
     19  OG       -28.7870   33.5240   63.3680 O.3   115  SER115     -0.2182
     20  N        -31.6950   32.6620   62.8470 N.am  116  ALA116     -0.1965
     21  CA       -32.6890   33.1720   61.9170 C.3   116  ALA116      0.1728
     22  C        -31.9900   34.0140   60.8440 C.2   116  ALA116      0.2616
     23  O        -32.6100   34.3740   59.8420 O.2   116  ALA116     -0.2715
     24  CB       -33.7500   33.9760   62.6480 C.3   116  ALA116      0.0334
     25  N        -30.7060   34.3110   61.0520 N.am  117  ALA117     -0.1977
     26  CA       -29.9030   35.0630   60.0810 C.3   117  ALA117      0.1597
     27  C        -29.7640   34.2700   58.7640 C.2   117  ALA117      0.2287
     28  O        -29.3810   34.8120   57.7240 O.2   117  ALA117     -0.2864
     29  CB       -28.5040   35.3750   60.6690 C.3   117  ALA117      0.0319
     30  N        -21.4010   35.3340   58.9380 N.3   139  TYR139     -0.1241
     31  CA       -21.9170   34.7410   60.1520 C.3   139  TYR139      0.1605
     32  C        -23.1130   33.8860   59.7580 C.2   139  TYR139      0.2264
     33  O        -23.2060   32.7240   60.1280 O.2   139  TYR139     -0.2867
     34  CB       -22.3630   35.8360   61.1290 C.3   139  TYR139      0.0534
     35  CG       -23.3020   35.3260   62.1980 C.ar  139  TYR139     -0.0201
     36  CD1      -22.8390   34.5070   63.2310 C.ar  139  TYR139     -0.0009
     37  CD2      -24.6740   35.5970   62.1280 C.ar  139  TYR139     -0.0009
     38  CE1      -23.7340   33.9600   64.1610 C.ar  139  TYR139      0.0417
     39  CE2      -25.5720   35.0590   63.0490 C.ar  139  TYR139      0.0417
     40  CZ       -25.1030   34.2440   64.0560 C.ar  139  TYR139      0.1957
     41  OH       -25.9980   33.7030   64.9470 O.3   139  TYR139     -0.2866
     42  N        -32.7230   30.3690   66.3780 N.3   166  TYR166     -0.1227
     43  CA       -33.1810   31.4010   67.2770 C.3   166  TYR166      0.1736
     44  C        -33.4570   32.6660   66.4970 C.2   166  TYR166      0.2595
     45  O        -32.7800   32.9700   65.5100 O.2   166  TYR166     -0.2718
     46  CB       -32.1120   31.6840   68.3180 C.3   166  TYR166      0.0548
     47  CG       -31.6550   30.4780   69.1230 C.ar  166  TYR166     -0.0200
     48  CD1      -30.3020   30.2750   69.3960 C.ar  166  TYR166     -0.0009
     49  CD2      -32.5730   29.5860   69.6840 C.ar  166  TYR166     -0.0009
     50  CE1      -29.8830   29.2300   70.2140 C.ar  166  TYR166      0.0417
     51  CE2      -32.1460   28.5350   70.5010 C.ar  166  TYR166      0.0417
     52  CZ       -30.8070   28.3790   70.7560 C.ar  166  TYR166      0.1957
     53  OH       -30.3860   27.3900   71.5650 O.3   166  TYR166     -0.2866
     54  N        -34.4750   33.3960   66.9210 N.am  167  PHE167     -0.1962
     55  CA       -34.7990   34.6610   66.2910 C.3   167  PHE167      0.1771
     56  C        -34.1680   35.7510   67.1710 C.2   167  PHE167      0.2620
     57  O        -33.0150   35.5930   67.5610 O.2   167  PHE167     -0.2715
     58  CB       -36.3190   34.7850   66.0610 C.3   167  PHE167      0.0574
     59  CG       -36.7870   34.0650   64.8190 C.ar  167  PHE167     -0.0200
     60  CD1      -36.7330   32.6790   64.7310 C.ar  167  PHE167     -0.0042
     61  CD2      -37.1990   34.7830   63.6940 C.ar  167  PHE167     -0.0042
     62  CE1      -37.0750   32.0140   63.5330 C.ar  167  PHE167     -0.0003
     63  CE2      -37.5390   34.1350   62.5000 C.ar  167  PHE167     -0.0003
     64  CZ       -37.4760   32.7520   62.4150 C.ar  167  PHE167     -0.0000
     65  N        -34.8680   36.8150   67.5280 N.am  168  ASN168     -0.1958
     66  CA       -34.2290   37.8350   68.3450 C.3   168  ASN168      0.1819
     67  C        -34.4110   37.5760   69.8310 C.2   168  ASN168      0.2621
     68  O        -35.4250   37.9520   70.4430 O.2   168  ASN168     -0.2715
     69  CB       -34.6550   39.2520   67.9290 C.3   168  ASN168      0.1195
     70  CG       -33.8050   39.8200   66.7880 C.2   168  ASN168      0.2630
     71  OD1      -33.0030   40.7100   66.9880 O.2   168  ASN168     -0.2716
     72  ND2      -34.0210   39.3440   65.5860 N.am  168  ASN168     -0.0877
     73  N        -33.4290   36.8500   70.3690 N.am  169  VAL169     -0.1977
     74  CA       -33.3590   36.4710   71.7810 C.3   169  VAL169      0.1596
     75  C        -32.9180   37.6670   72.6560 C.2   169  VAL169      0.2287
     76  O        -31.9670   38.3850   72.3340 O.2   169  VAL169     -0.2864
     77  CB       -32.3640   35.2880   72.0230 C.3   169  VAL169      0.0276
     78  CG1      -32.5200   34.7540   73.4200 C.3   169  VAL169      0.0022
     79  CG2      -32.5740   34.1610   71.0150 C.3   169  VAL169      0.0022
     80  N        -26.8500   38.9020   79.0710 N.3   174  GLU174     -0.1245
     81  CA       -26.2640   39.2940   77.7950 C.3   174  GLU174      0.1567
     82  C        -25.4560   40.5880   77.9070 C.2   174  GLU174      0.2260
     83  O        -25.0540   41.1540   76.8920 O.2   174  GLU174     -0.2867
     84  CB       -27.3450   39.4950   76.7500 C.3   174  GLU174      0.0388
     85  CG       -28.3630   40.5490   77.1310 C.3   174  GLU174      0.1160
     86  CD       -29.3410   40.8430   76.0040 C.2   174  GLU174      0.3649
     87  OE1      -30.4560   41.3420   76.3030 O.co2 174  GLU174     -0.2457
     88  OE2      -29.0060   40.5600   74.8260 O.co2 174  GLU174     -0.2457
     89  N        -22.2890   41.0950   75.8510 N.3   177  LYS177     -0.1245
     90  CA       -22.3920   41.1920   74.3990 C.3   177  LYS177      0.1561
     91  C        -22.1190   42.5380   73.7460 C.2   177  LYS177      0.2260
     92  O        -22.0080   42.6150   72.5230 O.2   177  LYS177     -0.2867
     93  CB       -23.6970   40.5930   73.9150 C.3   177  LYS177      0.0271
     94  CG       -23.7840   39.1180   74.2280 C.3   177  LYS177      0.0035
     95  CD       -24.9840   38.4570   73.5670 C.3   177  LYS177      0.0206
     96  CE       -24.7390   38.3280   72.0770 C.3   177  LYS177      0.1093
     97  NZ       -25.8480   37.5860   71.4550 N.3   177  LYS177     -0.1314
     98  N        -22.1240   45.7080   71.7770 N.3   179  SER179     -0.1202
     99  CA       -22.9580   46.2000   70.6840 C.3   179  SER179      0.2020
    100  C        -23.8870   45.1220   70.1380 C.2   179  SER179      0.2619
    101  O        -24.8700   45.4310   69.4540 O.2   179  SER179     -0.2717
    102  CB       -22.1050   46.7770   69.5460 C.3   179  SER179      0.2103
    103  OG       -21.3960   45.7700   68.8460 O.3   179  SER179     -0.2182
    104  N        -23.5680   43.8620   70.4180 N.am  180  MET180     -0.1965
    105  CA       -24.4110   42.7670   69.9590 C.3   180  MET180      0.1736
    106  C        -25.5360   42.4330   70.9560 C.2   180  MET180      0.2616
    107  O        -26.3790   41.6040   70.6710 O.2   180  MET180     -0.2715
    108  CB       -23.5680   41.5260   69.5940 C.3   180  MET180      0.0427
    109  CG       -22.8060   41.6450   68.2430 C.3   180  MET180      0.0599
    110  SD       -23.9800   41.6370   66.8180 S.3   180  MET180     -0.1393
    111  CE       -23.5230   43.1970   65.9610 C.3   180  MET180      0.0692
    112  N        -25.5570   43.0880   72.1130 N.am  181  ALA181     -0.1963
    113  CA       -26.6170   42.8700   73.1010 C.3   181  ALA181      0.1728
    114  C        -27.9410   43.3670   72.4870 C.2   181  ALA181      0.2617
    115  O        -27.9340   44.1270   71.5200 O.2   181  ALA181     -0.2715
    116  CB       -26.2960   43.6210   74.3950 C.3   181  ALA181      0.0334
    117  N        -29.0710   42.9460   73.0380 N.am  182  SER182     -0.1936
    118  CA       -30.3690   43.3250   72.4890 C.3   182  SER182      0.2055
    119  C        -30.6350   44.8180   72.6150 C.2   182  SER182      0.2642
    120  O        -30.0140   45.4880   73.4450 O.2   182  SER182     -0.2714
    121  CB       -31.4930   42.5320   73.1690 C.3   182  SER182      0.2130
    122  OG       -31.6910   42.9510   74.5090 O.3   182  SER182     -0.2179
    123  N        -31.5170   45.3400   71.7590 N.am  183  VAL183     -0.1977
    124  CA       -31.8990   46.7530   71.7760 C.3   183  VAL183      0.1596
    125  C        -32.4760   47.1430   73.1340 C.2   183  VAL183      0.2287
    126  O        -32.1910   48.2360   73.6380 O.2   183  VAL183     -0.2864
    127  CB       -32.8830   47.0810   70.6320 C.3   183  VAL183      0.0276
    128  CG1      -33.4490   48.4620   70.7920 C.3   183  VAL183      0.0022
    129  CG2      -32.1530   46.9970   69.3030 C.3   183  VAL183      0.0022
    130  N        -29.6840   47.8020   75.4130 N.3   186  HIS186     -0.1241
    131  CA       -29.1230   49.0890   75.0330 C.3   186  HIS186      0.1621
    132  C        -29.9350   50.2580   75.5750 C.2   186  HIS186      0.2264
    133  O        -29.3690   51.2220   76.1090 O.2   186  HIS186     -0.2867
    134  CB       -29.0550   49.1960   73.5090 C.3   186  HIS186      0.0745
    135  CG       -28.0390   48.2930   72.8850 C.ar  186  HIS186      0.0817
    136  ND1      -26.9490   47.8120   73.5730 N.ar  186  HIS186     -0.2268
    137  CD2      -27.9260   47.8220   71.6210 C.ar  186  HIS186      0.1154
    138  CE1      -26.2010   47.0870   72.7570 C.ar  186  HIS186      0.1986
    139  NE2      -26.7720   47.0770   71.5680 N.ar  186  HIS186     -0.2212
    140  N        -31.9450   55.3810   71.9490 N.3   198  LYS198     -0.1231
    141  CA       -31.8130   55.4490   70.4910 C.3   198  LYS198      0.1693
    142  C        -32.3120   54.2510   69.6800 C.2   198  LYS198      0.2592
    143  O        -32.2370   53.1050   70.1320 O.2   198  LYS198     -0.2718
    144  CB       -30.3430   55.6870   70.1310 C.3   198  LYS198      0.0285
    145  CG       -29.6950   56.9130   70.7740 C.3   198  LYS198      0.0035
    146  CD       -28.1880   56.9480   70.5180 C.3   198  LYS198      0.0206
    147  CE       -27.5340   58.0530   71.3320 C.3   198  LYS198      0.1093
    148  NZ       -27.6540   57.8200   72.8310 N.3   198  LYS198     -0.1314
    149  N        -32.8160   54.5400   68.4800 N.am  199  LEU199     -0.1966
    150  CA       -33.2740   53.5250   67.5260 C.3   199  LEU199      0.1728
    151  C        -32.8490   53.9770   66.1170 C.2   199  LEU199      0.2616
    152  O        -32.7150   55.1700   65.8760 O.2   199  LEU199     -0.2715
    153  CB       -34.8000   53.3460   67.5770 C.3   199  LEU199      0.0311
    154  CG       -35.4940   52.6330   68.7490 C.3   199  LEU199      0.0022
    155  CD1      -36.9740   52.4660   68.4240 C.3   199  LEU199      0.0001
    156  CD2      -34.8780   51.2710   69.0300 C.3   199  LEU199      0.0001
    157  N        -32.5580   53.0410   65.2150 N.am  200  PHE200     -0.1974
    158  CA       -32.1720   53.4140   63.8490 C.3   200  PHE200      0.1639
    159  C        -33.3710   54.0850   63.1690 C.2   200  PHE200      0.2290
    160  O        -34.5370   53.7770   63.4750 O.2   200  PHE200     -0.2864
    161  CB       -31.8610   52.1900   62.9740 C.3   200  PHE200      0.0560
    162  CG       -30.6710   51.4000   63.3860 C.ar  200  PHE200     -0.0200
    163  CD1      -30.4560   50.1450   62.8150 C.ar  200  PHE200     -0.0042
    164  CD2      -29.7680   51.8830   64.3240 C.ar  200  PHE200     -0.0042
    165  CE1      -29.3540   49.3730   63.1710 C.ar  200  PHE200     -0.0003
    166  CE2      -28.6690   51.1250   64.6890 C.ar  200  PHE200     -0.0003
    167  CZ       -28.4610   49.8590   64.1070 C.ar  200  PHE200     -0.0000
    168  N        -37.1010   52.2280   62.3060 N.3   203  SER203     -0.1217
    169  CA       -37.5130   51.2320   63.3100 C.3   203  SER203      0.1889
    170  C        -39.0100   50.9090   63.4670 C.2   203  SER203      0.2288
    171  O        -39.3650   49.8890   64.0760 O.2   203  SER203     -0.2866
    172  CB       -36.9370   51.5960   64.6860 C.3   203  SER203      0.2089
    173  OG       -35.5180   51.5980   64.6910 O.3   203  SER203     -0.2183
    174  N        -39.2360   48.3130   60.9900 N.3   206  PHE206     -0.1241
    175  CA       -38.2750   47.2380   61.2160 C.3   206  PHE206      0.1605
    176  C        -38.8640   46.3470   62.2970 C.2   206  PHE206      0.2264
    177  O        -38.9950   46.7680   63.4650 O.2   206  PHE206     -0.2867
    178  CB       -36.9260   47.7900   61.6830 C.3   206  PHE206      0.0534
    179  CG       -36.1360   48.4600   60.6010 C.ar  206  PHE206     -0.0203
    180  CD1      -36.4070   48.1980   59.2550 C.ar  206  PHE206     -0.0042
    181  CD2      -35.1020   49.3330   60.9270 C.ar  206  PHE206     -0.0042
    182  CE1      -35.6620   48.7910   58.2530 C.ar  206  PHE206     -0.0003
    183  CE2      -34.3450   49.9340   59.9440 C.ar  206  PHE206     -0.0003
    184  CZ       -34.6190   49.6680   58.5970 C.ar  206  PHE206     -0.0000
    185  N        -39.0540   42.3220   64.1330 N.3   208  ARG208     -0.1245
    186  CA       -38.3630   41.0680   64.3990 C.3   208  ARG208      0.1563
    187  C        -39.2080   40.2850   65.3810 C.2   208  ARG208      0.2260
    188  O        -40.0440   40.8410   66.0940 O.2   208  ARG208     -0.2867
    189  CB       -36.9890   41.3200   65.0420 C.3   208  ARG208      0.0307
    190  CG       -36.0190   42.1650   64.2280 C.3   208  ARG208      0.0489
    191  CD       -35.4190   41.3830   63.0750 C.3   208  ARG208      0.2205
    192  NE       -34.4280   42.1760   62.3480 N.pl3 208  ARG208     -0.0865
    193  CZ       -33.1800   42.4000   62.7610 C.cat 208  ARG208      0.5346
    194  NH1      -32.7430   41.9100   63.9170 N.pl3 208  ARG208      0.1354
    195  NH2      -32.3350   43.0320   61.9680 N.pl3 208  ARG208      0.1354
    196  N        -39.2280   47.5120   66.5150 N.3   242  PHE242     -0.1241
    197  CA       -38.2550   47.9360   67.5050 C.3   242  PHE242      0.1605
    198  C        -38.8930   49.0080   68.3910 C.2   242  PHE242      0.2264
    199  O        -38.4970   49.1910   69.5610 O.2   242  PHE242     -0.2867
    200  CB       -36.9750   48.4500   66.8110 C.3   242  PHE242      0.0534
    201  CG       -36.0540   47.3420   66.3600 C.ar  242  PHE242     -0.0203
    202  CD1      -36.1560   46.8170   65.0860 C.ar  242  PHE242     -0.0042
    203  CD2      -35.1130   46.7880   67.2440 C.ar  242  PHE242     -0.0042
    204  CE1      -35.3390   45.7470   64.6790 C.ar  242  PHE242     -0.0003
    205  CE2      -34.2900   45.7180   66.8540 C.ar  242  PHE242     -0.0003
    206  CZ       -34.4030   45.1970   65.5680 C.ar  242  PHE242     -0.0000
    207  N        -24.1920   47.9720   57.9850 N.3   267  LEU267     -0.1245
    208  CA       -25.3670   47.1080   57.9910 C.3   267  LEU267      0.1561
    209  C        -26.1820   47.2300   56.7010 C.2   267  LEU267      0.2260
    210  O        -27.0310   46.3960   56.4240 O.2   267  LEU267     -0.2867
    211  CB       -26.2580   47.3960   59.2090 C.3   267  LEU267      0.0270
    212  CG       -25.7670   47.1430   60.6440 C.3   267  LEU267      0.0019
    213  CD1      -26.9370   47.2960   61.6110 C.3   267  LEU267      0.0001
    214  CD2      -25.1520   45.7500   60.7820 C.3   267  LEU267      0.0001
    215  N        -26.9230   44.2380   54.4930 N.3   270  ARG270     -0.1231
    216  CA       -26.6620   43.0610   55.3230 C.3   270  ARG270      0.1694
    217  C        -27.7560   42.8520   56.3830 C.2   270  ARG270      0.2592
    218  O        -27.7330   41.8650   57.0950 O.2   270  ARG270     -0.2718
    219  CB       -25.3300   43.2430   56.0660 C.3   270  ARG270      0.0321
    220  CG       -24.1680   43.8180   55.2530 C.3   270  ARG270      0.0489
    221  CD       -23.7590   42.9080   54.1220 C.3   270  ARG270      0.2205
    222  NE       -22.3960   43.1810   53.6660 N.pl3 270  ARG270     -0.0865
    223  CZ       -21.7900   42.5330   52.6650 C.cat 270  ARG270      0.5346
    224  NH1      -22.4280   41.5750   52.0030 N.pl3 270  ARG270      0.1354
    225  NH2      -20.5280   42.8140   52.3410 N.pl3 270  ARG270      0.1354
    226  N        -28.7750   43.7050   56.3700 N.am  271  TYR271     -0.1962
    227  CA       -29.8340   43.7420   57.3820 C.3   271  TYR271      0.1771
    228  C        -31.2350   43.1440   57.0950 C.2   271  TYR271      0.2619
    229  O        -31.8090   43.3500   56.0270 O.2   271  TYR271     -0.2715
    230  CB       -29.9530   45.2230   57.8030 C.3   271  TYR271      0.0574
    231  CG       -30.8080   45.5460   59.0150 C.ar  271  TYR271     -0.0198
    232  CD1      -30.2970   45.4310   60.3150 C.ar  271  TYR271     -0.0009
    233  CD2      -32.1180   46.0230   58.8630 C.ar  271  TYR271     -0.0009
    234  CE1      -31.0640   45.7830   61.4260 C.ar  271  TYR271      0.0417
    235  CE2      -32.8960   46.3800   59.9830 C.ar  271  TYR271      0.0417
    236  CZ       -32.3600   46.2570   61.2520 C.ar  271  TYR271      0.1957
    237  OH       -33.1170   46.6140   62.3370 O.3   271  TYR271     -0.2866
    238  N        -31.8010   42.4530   58.0900 N.am  272  GLN272     -0.1977
    239  CA       -33.1370   41.8560   57.9840 C.3   272  GLN272      0.1601
    240  C        -34.1760   42.8160   58.5890 C.2   272  GLN272      0.2287
    241  O        -34.2590   42.9760   59.8030 O.2   272  GLN272     -0.2864
    242  CB       -33.2110   40.5120   58.7240 C.3   272  GLN272      0.0394
    243  CG       -32.3650   39.3570   58.1530 C.3   272  GLN272      0.0908
    244  CD       -32.5180   38.0560   58.9770 C.2   272  GLN272      0.2608
    245  OE1      -32.9840   37.0240   58.4490 O.2   272  GLN272     -0.2717
    246  NE2      -32.1800   38.1170   60.2970 N.am  272  GLN272     -0.0878
@<TRIPOS>BOND
     1   224   223    1
     2   225   223    1
     3   223   222    2
     4   222   221    1
     5   221   220    1
     6   215   216    1
     7   220   219    1
     8   216   219    1
     9   216   217    1
    10   229   228    2
    11   226   217   am
    12   226   227    1
    13   217   218    2
    14   210   209    2
    15   209   208    1
    16   228   227    1
    17   228   238   am
    18   227   230    1
    19    28    27    2
    20   230   231    1
    21   239   238    1
    22   239   240    1
    23   239   242    1
    24   207   208    1
    25   208   211    1
    26   243   242    1
    27   243   244    1
    28   182   184   ar
    29   182   180   ar
    30   245   244    2
    31   240   241    2
    32   184   183   ar
    33    27    26    1
    34   233   231   ar
    35   233   235   ar
    36    30    31    1
    37   244   246   am
    38   231   232   ar
    39   211   212    1
    40   180   179   ar
    41    32    33    2
    42    32    31    1
    43    23    22    2
    44   183   181   ar
    45   235   236   ar
    46    26    29    1
    47    26    25    1
    48    31    34    1
    49   232   234   ar
    50    10     9    2
    51   179   181   ar
    52   179   178    1
    53   212   214    1
    54   212   213    1
    55    22    25   am
    56    22    21    1
    57   174   175    1
    58    34    35    1
    59   175   178    1
    60   175   176    1
    61   236   234   ar
    62   236   237    1
    63    17    16    2
    64     9     8    1
    65    21    24    1
    66    21    20    1
    67   195   193    1
    68    37    35   ar
    69    37    39   ar
    70    35    36   ar
    71   176   177    2
    72    11     8    1
    73    11    13    1
    74    11    12    1
    75   168   169    1
    76   192   193    2
    77   192   191    1
    78    64    63   ar
    79    64    62   ar
    80    16    20   am
    81    16    15    1
    82    63    61   ar
    83     8     7    1
    84   193   194    1
    85   163   165   ar
    86   163   162   ar
    87   161   162    1
    88   161   158    1
    89    39    40   ar
    90   191   190    1
    91   159   160    2
    92   159   158    1
    93   165   167   ar
    94    36    38   ar
    95   169   170    1
    96   169   172    1
    97    18    19    1
    98    18    15    1
    99   162   164   ar
   100    14    15    1
   101   170   171    2
   102    62    60   ar
   103    61    59   ar
   104   158   157    1
   105    40    38   ar
   106    40    41    1
   107   167   166   ar
   108   185   186    1
   109   190   189    1
   110   164   166   ar
   111   186   189    1
   112   186   187    1
   113   204   202   ar
   114   204   206   ar
   115   172   173    1
   116    60    59   ar
   117    59    58    1
   118   202   201   ar
   119   157   151   am
   120   187   188    2
   121    45    44    2
   122   206   205   ar
   123    72    70   am
   124   152   151    2
   125   111   110    1
   126     4     3    2
   127    58    55    1
   128   151   150    1
   129    55    54    1
   130    55    56    1
   131   201   200    1
   132   201   203   ar
   133    42    43    1
   134     3     2    1
   135    44    54   am
   136    44    43    1
   137   196   197    1
   138    70    71    2
   139    70    69    1
   140   200   197    1
   141   110   109    1
   142   205   203   ar
   143     2     1    1
   144     2     5    1
   145    56    65   am
   146    56    57    2
   147    43    46    1
   148   197   198    1
   149   150   153    1
   150   150   149    1
   151    65    66    1
   152   153   154    1
   153    69    66    1
   154   109   108    1
   155     5     6    1
   156    46    47    1
   157    66    67    1
   158   198   199    2
   159   155   154    1
   160   149   142   am
   161   154   156    1
   162   103   102    1
   163    47    48   ar
   164    47    49   ar
   165   129   127    1
   166    48    50   ar
   167   101   100    2
   168   102    99    1
   169   108   105    1
   170   142   143    2
   171   142   141    1
   172    49    51   ar
   173    67    73   am
   174    67    68    2
   175   105   104    1
   176   105   106    1
   177   144   141    1
   178   144   145    1
   179   100   104   am
   180   100    99    1
   181    50    52   ar
   182    73    74    1
   183   141   140    1
   184    51    52   ar
   185   146   145    1
   186   146   147    1
   187   127   128    1
   188   127   124    1
   189   107   106    2
   190    99    98    1
   191    52    53    1
   192   106   112   am
   193    79    77    1
   194   147   148    1
   195    97    96    1
   196   115   114    2
   197   139   137   ar
   198   139   138   ar
   199   137   135   ar
   200   123   124    1
   201   123   119   am
   202   124   125    1
   203    74    77    1
   204    74    75    1
   205    77    78    1
   206    96    95    1
   207   112   113    1
   208    76    75    2
   209   114   117   am
   210   114   113    1
   211   118   119    1
   212   118   117    1
   213   118   121    1
   214    92    91    2
   215   119   120    2
   216   138   136   ar
   217   135   134    1
   218   135   136   ar
   219   113   116    1
   220   125   126    2
   221   121   122    1
   222   134   131    1
   223    95    94    1
   224    91    90    1
   225    93    94    1
   226    93    90    1
   227    90    89    1
   228    88    86   ar
   229   131   130    1
   230   131   132    1
   231   132   133    2
   232    86    87   ar
   233    86    85    1
   234    84    85    1
   235    84    81    1
   236    83    82    2
   237    81    82    1
   238    81    80    1
