@<TRIPOS>MOLECULE
tmp/1eq9B00.pdb
 122 121 0 0 0
SMALL
GASTEIGER

@<TRIPOS>ATOM
      1  N         41.2360   27.0480   20.6460 N.3    25  ARG25      -0.1231
      2  CA        40.5200   25.9460   21.2850 C.3    25  ARG25       0.1694
      3  C         41.3590   24.6770   21.2990 C.2    25  ARG25       0.2592
      4  O         41.4390   23.9920   22.3160 O.2    25  ARG25      -0.2718
      5  CB        39.2000   25.6730   20.5510 C.3    25  ARG25       0.0321
      6  CG        38.3300   24.5620   21.1690 C.3    25  ARG25       0.0489
      7  CD        37.0670   24.3650   20.3330 C.3    25  ARG25       0.2205
      8  NE        36.2260   23.2410   20.7530 N.pl3  25  ARG25      -0.0865
      9  CZ        35.2920   23.3010   21.6980 C.cat  25  ARG25       0.5346
     10  NH1       35.0610   24.4350   22.3510 N.pl3  25  ARG25       0.1354
     11  NH2       34.5690   22.2220   21.9760 N.pl3  25  ARG25       0.1354
     12  N         41.9790   24.3680   20.1610 N.am   26  CYS26      -0.1970
     13  CA        42.8040   23.1720   20.0270 C.3    26  CYS26       0.1712
     14  C         43.8630   23.3090   18.9550 C.2    26  CYS26       0.2296
     15  O         43.8210   24.2150   18.1400 O.2    26  CYS26      -0.2864
     16  CB        41.9620   21.9810   19.6170 C.3    26  CYS26       0.0983
     17  SG        40.9790   21.1990   20.9130 S.3    26  CYS26      -0.0798
     18  N         37.5670   15.1150   20.1790 N.3    41  HIS41      -0.1241
     19  CA        37.1920   15.8300   21.3920 C.3    41  HIS41       0.1621
     20  C         37.0670   17.3340   21.1550 C.2    41  HIS41       0.2264
     21  O         36.2890   18.0210   21.8200 O.2    41  HIS41      -0.2867
     22  CB        38.2440   15.5870   22.4710 C.3    41  HIS41       0.0745
     23  CG        37.8880   16.1680   23.8020 C.ar   41  HIS41       0.0817
     24  ND1       38.8140   16.7840   24.6130 N.ar   41  HIS41      -0.2268
     25  CD2       36.7160   16.1920   24.4800 C.ar   41  HIS41       0.1154
     26  CE1       38.2300   17.1630   25.7360 C.ar   41  HIS41       0.1986
     27  NE2       36.9570   16.8140   25.6810 N.ar   41  HIS41      -0.2212
     28  N         52.1170   17.7590   28.0240 N.3   173  ALA173     -0.1231
     29  CA        51.0350   18.4790   27.3630 C.3   173  ALA173      0.1694
     30  C         50.1110   19.1020   28.4040 C.2   173  ALA173      0.2592
     31  O         50.1230   18.7100   29.5680 O.2   173  ALA173     -0.2718
     32  CB        50.2470   17.5210   26.4840 C.3   173  ALA173      0.0304
     33  N         49.3100   20.0760   27.9820 N.am  174  CYS174     -0.1956
     34  CA        48.3680   20.7060   28.8940 C.3   174  CYS174      0.1843
     35  C         47.1680   21.2190   28.1010 C.2   174  CYS174      0.2625
     36  O         47.1620   21.1790   26.8660 O.2   174  CYS174     -0.2714
     37  CB        49.0540   21.8430   29.6550 C.3   174  CYS174      0.0997
     38  SG        48.2650   22.3090   31.2350 S.3   174  CYS174     -0.0797
     39  N         46.1460   21.6790   28.8110 N.am  175  HIS175     -0.1959
     40  CA        44.9370   22.1920   28.1750 C.3   175  HIS175      0.1787
     41  C         45.2480   23.1590   27.0350 C.2   175  HIS175      0.2621
     42  O         45.9970   24.1220   27.2070 O.2   175  HIS175     -0.2715
     43  CB        44.0610   22.8740   29.2270 C.3   175  HIS175      0.0785
     44  CG        43.6330   21.9590   30.3320 C.ar  175  HIS175      0.0821
     45  ND1       42.6530   21.0030   30.1690 N.ar  175  HIS175     -0.2267
     46  CD2       44.0710   21.8350   31.6070 C.ar  175  HIS175      0.1154
     47  CE1       42.5050   20.3320   31.2970 C.ar  175  HIS175      0.1986
     48  NE2       43.3530   20.8170   32.1840 N.ar  175  HIS175     -0.2212
     49  N         44.6540   22.8970   25.8760 N.am  176  GLY176     -0.1940
     50  CA        44.8840   23.7340   24.7110 C.3   176  GLY176      0.2014
     51  C         45.8030   23.0490   23.7090 C.2   176  GLY176      0.2639
     52  O         45.9050   23.4750   22.5570 O.2   176  GLY176     -0.2714
     53  N         46.4780   21.9880   24.1440 N.am  177  ASP177     -0.1957
     54  CA        47.3850   21.2490   23.2570 C.3   177  ASP177      0.1840
     55  C         46.6610   20.1130   22.5460 C.2   177  ASP177      0.2622
     56  O         47.1450   19.5840   21.5480 O.2   177  ASP177     -0.2715
     57  CB        48.5600   20.6470   24.0370 C.3   177  ASP177      0.1450
     58  CG        49.5530   21.6850   24.5040 C.2   177  ASP177      0.3671
     59  OD1       49.8720   22.6060   23.7250 O.co2 177  ASP177     -0.2456
     60  OD2       50.0340   21.5640   25.6550 O.co2 177  ASP177     -0.2456
     61  N         45.5090   19.7280   23.0750 N.am  178  SER178     -0.1950
     62  CA        44.7260   18.6460   22.4910 C.3   178  SER178      0.1924
     63  C         44.5280   18.8460   20.9950 C.2   178  SER178      0.2314
     64  O         44.3250   19.9710   20.5370 O.2   178  SER178     -0.2863
     65  CB        43.3570   18.5750   23.1590 C.3   178  SER178      0.2116
     66  OG        43.3760   17.9350   24.4230 O.3   178  SER178     -0.2180
     67  N         47.4260   14.6630   20.2110 N.3   192  VAL192     -0.1231
     68  CA        47.2240   14.8670   21.6480 C.3   192  VAL192      0.1692
     69  C         45.7710   14.5790   22.0170 C.2   192  VAL192      0.2593
     70  O         44.8520   15.1840   21.4680 O.2   192  VAL192     -0.2718
     71  CB        47.5750   16.3100   22.0610 C.3   192  VAL192      0.0266
     72  CG1       47.3330   16.5000   23.5560 C.3   192  VAL192      0.0020
     73  CG2       49.0370   16.6010   21.7310 C.3   192  VAL192      0.0020
     74  N         45.5640   13.6630   22.9580 N.am  193  SER193     -0.1938
     75  CA        44.2090   13.2970   23.3580 C.3   193  SER193      0.2055
     76  C         43.9120   13.5380   24.8310 C.2   193  SER193      0.2643
     77  O         43.0130   14.3050   25.1620 O.2   193  SER193     -0.2714
     78  CB        43.9430   11.8260   23.0250 C.3   193  SER193      0.2130
     79  OG        42.5880   11.4840   23.2650 O.3   193  SER193     -0.2179
     80  N         44.6460   12.8700   25.7180 N.am  194  PHE194     -0.1959
     81  CA        44.4150   13.0460   27.1480 C.3   194  PHE194      0.1771
     82  C         45.6280   12.7370   28.0040 C.2   194  PHE194      0.2620
     83  O         46.6780   12.3400   27.5020 O.2   194  PHE194     -0.2715
     84  CB        43.2210   12.1940   27.6060 C.3   194  PHE194      0.0574
     85  CG        43.5000   10.7150   27.6760 C.ar  194  PHE194     -0.0200
     86  CD1       43.9600   10.1330   28.8560 C.ar  194  PHE194     -0.0042
     87  CD2       43.2610    9.8970   26.5750 C.ar  194  PHE194     -0.0042
     88  CE1       44.1720    8.7460   28.9420 C.ar  194  PHE194     -0.0003
     89  CE2       43.4680    8.5180   26.6460 C.ar  194  PHE194     -0.0003
     90  CZ        43.9240    7.9410   27.8350 C.ar  194  PHE194     -0.0000
     91  N         45.4790   12.9350   29.3080 N.am  195  GLY195     -0.1954
     92  CA        46.5780   12.6670   30.2190 C.3   195  GLY195      0.1869
     93  C         46.1310   12.9420   31.6340 C.2   195  GLY195      0.2309
     94  O         44.9500   12.7920   31.9540 O.2   195  GLY195     -0.2863
     95  N         46.1330   15.9860   33.7050 N.3   197  PRO197     -0.2102
     96  CA        46.2380   17.4330   33.7240 C.3   197  PRO197      0.1504
     97  C         47.5550   18.0850   34.0690 C.2   197  PRO197      0.2576
     98  O         47.7940   18.5200   35.1890 O.2   197  PRO197     -0.2718
     99  CB        45.0860   17.8280   34.6300 C.3   197  PRO197      0.0282
    100  CG        43.9920   16.9210   34.0620 C.3   197  PRO197      0.0208
    101  CD        44.7070   15.6050   33.6990 C.3   197  PRO197      0.0893
    102  N         48.4140   18.0830   33.0560 N.am  198  CYS198     -0.1971
    103  CA        49.7060   18.7450   33.0330 C.3   198  CYS198      0.1712
    104  C         50.9650   18.4370   33.8200 C.2   198  CYS198      0.2296
    105  O         51.1870   18.9280   34.9330 O.2   198  CYS198     -0.2864
    106  CB        49.4190   20.2300   33.1210 C.3   198  CYS198      0.0983
    107  SG        47.9000   20.5540   32.1770 S.3   198  CYS198     -0.0798
    108  N         51.4420   11.0620   28.9840 N.3   204  ASP204     -0.1225
    109  CA        50.4270   11.7600   28.2070 C.3   204  ASP204      0.1805
    110  C         50.0260   10.7560   27.1330 C.2   204  ASP204      0.2597
    111  O         50.8780   10.0410   26.6010 O.2   204  ASP204     -0.2718
    112  CB        50.9930   13.0270   27.5680 C.3   204  ASP204      0.1424
    113  CG        51.2010   14.1420   28.5720 C.2   204  ASP204      0.3668
    114  OD1       50.2980   14.3580   29.4040 O.co2 204  ASP204     -0.2456
    115  OD2       52.2530   14.8140   28.5210 O.co2 204  ASP204     -0.2456
    116  N         48.7380   10.6960   26.8200 N.am  205  VAL205     -0.1980
    117  CA        48.2370    9.7430   25.8380 C.3   205  VAL205      0.1595
    118  C         47.7750   10.4180   24.5540 C.2   205  VAL205      0.2287
    119  O         47.1030   11.4520   24.5830 O.2   205  VAL205     -0.2864
    120  CB        47.0760    8.9260   26.4270 C.3   205  VAL205      0.0276
    121  CG1       46.6480    7.8380   25.4490 C.3   205  VAL205      0.0022
    122  CG2       47.5040    8.3100   27.7530 C.3   205  VAL205      0.0022
@<TRIPOS>BOND
     1    15    14    2
     2    14    13    1
     3    16    13    1
     4    16    17    1
     5    13    12    1
     6    12     3   am
     7    18    19    1
     8    67    68    1
     9     7     8    1
    10     7     6    1
    11    64    63    2
    12     5     6    1
    13     5     2    1
    14     1     2    1
    15     8     9    2
    16    63    62    1
    17    20    19    1
    18    20    21    2
    19     2     3    1
    20     3     4    2
    21    19    22    1
    22    70    69    2
    23    56    55    2
    24    68    69    1
    25    68    71    1
    26     9    11    1
    27     9    10    1
    28    73    71    1
    29    69    74   am
    30    71    72    1
    31    22    23    1
    32    62    61    1
    33    62    65    1
    34    55    61   am
    35    55    54    1
    36    52    51    2
    37    74    75    1
    38    78    79    1
    39    78    75    1
    40    65    66    1
    41    54    57    1
    42    54    53    1
    43    75    76    1
    44    51    53   am
    45    51    50    1
    46    59    58   ar
    47    23    25   ar
    48    23    24   ar
    49    57    58    1
    50    25    27   ar
    51    58    60   ar
    52   118   119    2
    53   118   117    1
    54    24    26   ar
    55    50    49    1
    56    76    77    2
    57    76    80   am
    58   121   120    1
    59    27    26   ar
    60    80    81    1
    61   117   120    1
    62   117   116    1
    63    49    41   am
    64   120   122    1
    65    32    29    1
    66    87    89   ar
    67    87    85   ar
    68   111   110    2
    69    89    90   ar
    70   116   110   am
    71    36    35    2
    72    41    42    2
    73    41    40    1
    74   110   109    1
    75    81    84    1
    76    81    82    1
    77    29    28    1
    78    29    30    1
    79    83    82    2
    80   112   109    1
    81   112   113    1
    82    84    85    1
    83    85    86   ar
    84    90    88   ar
    85    33    30   am
    86    33    34    1
    87    82    91   am
    88    35    39   am
    89    35    34    1
    90    40    39    1
    91    40    43    1
    92   109   108    1
    93    30    31    2
    94   115   113   ar
    95   113   114   ar
    96    86    88   ar
    97    34    37    1
    98    43    44    1
    99    91    92    1
   100    37    38    1
   101    45    44   ar
   102    45    47   ar
   103    92    93    1
   104    44    46   ar
   105    38   107    1
   106    47    48   ar
   107    46    48   ar
   108    93    94    2
   109   107   106    1
   110   103   102    1
   111   103   106    1
   112   103   104    1
   113   102    97   am
   114   101    95    1
   115   101   100    1
   116    95    96    1
   117    96    97    1
   118    96    99    1
   119   104   105    2
   120   100    99    1
   121    97    98    2
