@<TRIPOS>MOLECULE
tmp/1eqaA01.pdb
 104 101 0 0 0
SMALL
GASTEIGER

@<TRIPOS>ATOM
      1  N         23.3050   19.2690   21.0330 N.3    22  TYR22      -0.1241
      2  CA        22.5900   18.2800   21.8190 C.3    22  TYR22       0.1605
      3  C         23.4830   17.3020   22.6150 C.2    22  TYR22       0.2264
      4  O         24.3290   16.6070   22.0500 O.2    22  TYR22      -0.2867
      5  CB        21.6240   17.5210   20.9100 C.3    22  TYR22       0.0534
      6  CG        20.8900   16.4330   21.6380 C.ar   22  TYR22      -0.0201
      7  CD1       19.8600   16.7370   22.5410 C.ar   22  TYR22      -0.0009
      8  CD2       21.2750   15.1060   21.4990 C.ar   22  TYR22      -0.0009
      9  CE1       19.2450   15.7420   23.2960 C.ar   22  TYR22       0.0417
     10  CE2       20.6730   14.1020   22.2460 C.ar   22  TYR22       0.0417
     11  CZ        19.6640   14.4240   23.1480 C.ar   22  TYR22       0.1957
     12  OH        19.1280   13.4280   23.9310 O.3    22  TYR22      -0.2866
     13  N         23.5840   13.9890   24.4970 N.3    24  PRO24      -0.2116
     14  CA        22.8460   12.7410   24.6870 C.3    24  PRO24       0.1372
     15  C         22.5990   12.3410   26.1370 C.2    24  PRO24       0.2244
     16  O         21.6500   11.6070   26.4250 O.2    24  PRO24      -0.2868
     17  CB        23.6960   11.7270   23.9310 C.3    24  PRO24       0.0268
     18  CG        25.0530   12.3560   23.8990 C.3    24  PRO24       0.0207
     19  CD        24.7560   13.7760   23.6340 C.3    24  PRO24       0.0892
     20  N         19.0640   12.8160   28.2540 N.3    27  ALA27      -0.1231
     21  CA        17.9790   11.8280   28.1590 C.3    27  ALA27       0.1694
     22  C         17.8360   11.0420   29.4500 C.2    27  ALA27       0.2592
     23  O         16.7900   10.4470   29.7120 O.2    27  ALA27      -0.2718
     24  CB        18.2380   10.8720   27.0150 C.3    27  ALA27       0.0304
     25  N         18.9180   11.0120   30.2220 N.am   28  ASN28      -0.1974
     26  CA        18.9460   10.3140   31.4960 C.3    28  ASN28       0.1688
     27  C         18.4110   11.2050   32.6200 C.2    28  ASN28       0.2292
     28  O         18.1800   10.7390   33.7360 O.2    28  ASN28      -0.2864
     29  CB        20.3810    9.8530   31.8160 C.3    28  ASN28       0.1181
     30  CG        20.7220    8.4960   31.1960 C.2    28  ASN28       0.2629
     31  OD1       20.0830    8.0450   30.2460 O.2    28  ASN28      -0.2716
     32  ND2       21.7250    7.8340   31.7510 N.am   28  ASN28      -0.0877
     33  N         14.9140   12.6360   14.5680 N.3   174  PHE174     -0.1241
     34  CA        16.2960   13.0430   14.7970 C.3   174  PHE174      0.1605
     35  C         17.1800   12.9620   13.5640 C.2   174  PHE174      0.2264
     36  O         17.0850   12.0160   12.7870 O.2   174  PHE174     -0.2867
     37  CB        16.8510   12.3120   16.0070 C.3   174  PHE174      0.0534
     38  CG        16.0450   12.5800   17.2150 C.ar  174  PHE174     -0.0203
     39  CD1       15.6710   13.8920   17.5100 C.ar  174  PHE174     -0.0042
     40  CD2       15.4900   11.5460   17.9550 C.ar  174  PHE174     -0.0042
     41  CE1       14.7450   14.1740   18.5070 C.ar  174  PHE174     -0.0003
     42  CE2       14.5580   11.8130   18.9640 C.ar  174  PHE174     -0.0003
     43  CZ        14.1830   13.1310   19.2360 C.ar  174  PHE174     -0.0000
     44  N         20.3100   12.2990   13.1430 N.3   176  ASP176     -0.1225
     45  CA        21.1220   11.0900   13.1220 C.3   176  ASP176      0.1805
     46  C         20.2830    9.8440   12.8780 C.2   176  ASP176      0.2597
     47  O         20.8090    8.7370   12.7860 O.2   176  ASP176     -0.2718
     48  CB        21.9470   10.9500   14.4130 C.3   176  ASP176      0.1424
     49  CG        21.0850   10.7510   15.6720 C.2   176  ASP176      0.3668
     50  OD1       19.9900   11.3500   15.7690 O.co2 176  ASP176     -0.2456
     51  OD2       21.5300   10.0100   16.5870 O.co2 176  ASP176     -0.2456
     52  N         18.9780   10.0390   12.7400 N.am  177  GLN177     -0.1979
     53  CA        18.0420    8.9530   12.5010 C.3   177  GLN177      0.1601
     54  C         17.1600    9.3140   11.3150 C.2   177  GLN177      0.2287
     55  O         15.9890    8.9560   11.2750 O.2   177  GLN177     -0.2864
     56  CB        17.1650    8.7350   13.7330 C.3   177  GLN177      0.0394
     57  CG        17.8160    7.9900   14.8810 C.3   177  GLN177      0.0908
     58  CD        16.9120    7.9310   16.0960 C.2   177  GLN177      0.2608
     59  OE1       17.3050    8.3270   17.1940 O.2   177  GLN177     -0.2717
     60  NE2       15.6780    7.4690   15.9000 N.am  177  GLN177     -0.0878
     61  N         13.2120   17.5140   28.3710 N.3   198  TYR198     -0.1227
     62  CA        14.0000   17.5910   27.1410 C.3   198  TYR198      0.1736
     63  C         13.2400   17.2750   25.8820 C.2   198  TYR198      0.2596
     64  O         13.8350   17.0060   24.8380 O.2   198  TYR198     -0.2718
     65  CB        15.2600   16.7180   27.2620 C.3   198  TYR198      0.0548
     66  CG        16.2330   17.3780   28.1660 C.ar  198  TYR198     -0.0200
     67  CD1       16.9120   18.5230   27.7440 C.ar  198  TYR198     -0.0009
     68  CD2       16.3370   16.9910   29.4900 C.ar  198  TYR198     -0.0009
     69  CE1       17.6440   19.2660   28.6180 C.ar  198  TYR198      0.0417
     70  CE2       17.0670   17.7310   30.3790 C.ar  198  TYR198      0.0417
     71  CZ        17.7200   18.8690   29.9410 C.ar  198  TYR198      0.1957
     72  OH        18.4500   19.6090   30.8420 O.3   198  TYR198     -0.2866
     73  N         11.9250   17.3950   25.9690 N.am  199  SER199     -0.1938
     74  CA        11.0580   17.1200   24.8410 C.3   199  SER199      0.2055
     75  C         11.2810   18.1270   23.6940 C.2   199  SER199      0.2642
     76  O         11.4880   19.3260   23.9310 O.2   199  SER199     -0.2714
     77  CB         9.6000   17.1640   25.3090 C.3   199  SER199      0.2130
     78  OG         8.7090   16.8580   24.2460 O.3   199  SER199     -0.2179
     79  N         11.2950   17.6320   22.4560 N.am  200  ALA200     -0.1977
     80  CA        11.4620   18.4990   21.2810 C.3   200  ALA200      0.1597
     81  C         10.1180   18.6490   20.5820 C.2   200  ALA200      0.2287
     82  O         10.0430   19.1500   19.4510 O.2   200  ALA200     -0.2864
     83  CB        12.4840   17.8920   20.3230 C.3   200  ALA200      0.0319
     84  N         16.6480   20.2260   16.5800 N.3   227  GLN227     -0.1245
     85  CA        17.3740   19.6000   17.6670 C.3   227  GLN227      0.1566
     86  C         18.1640   20.6040   18.4870 C.2   227  GLN227      0.2260
     87  O         18.1640   20.5520   19.7180 O.2   227  GLN227     -0.2867
     88  CB        18.3060   18.5340   17.1010 C.3   227  GLN227      0.0367
     89  CG        18.9480   17.6750   18.1500 C.3   227  GLN227      0.0905
     90  CD        20.0340   16.7920   17.5690 C.2   227  GLN227      0.2608
     91  OE1       20.8710   17.2580   16.8070 O.2   227  GLN227     -0.2717
     92  NE2       20.0150   15.5090   17.8990 N.am  227  GLN227     -0.0878
     93  N         17.0540   22.0740   21.9870 N.3   231  TYR231     -0.1241
     94  CA        17.9780   21.7120   23.0470 C.3   231  TYR231      0.1605
     95  C         18.3640   22.9350   23.8690 C.2   231  TYR231      0.2264
     96  O         18.5090   22.8530   25.0980 O.2   231  TYR231     -0.2867
     97  CB        19.2450   21.0220   22.5400 C.3   231  TYR231      0.0534
     98  CG        20.0070   20.4260   23.7070 C.ar  231  TYR231     -0.0201
     99  CD1       19.3950   19.4790   24.5260 C.ar  231  TYR231     -0.0009
    100  CD2       21.2660   20.8940   24.0680 C.ar  231  TYR231     -0.0009
    101  CE1       19.9970   19.0220   25.6730 C.ar  231  TYR231      0.0417
    102  CE2       21.8890   20.4440   25.2200 C.ar  231  TYR231      0.0417
    103  CZ        21.2390   19.5040   26.0190 C.ar  231  TYR231      0.1957
    104  OH        21.8150   19.0260   27.1670 O.3   231  TYR231     -0.2866
@<TRIPOS>BOND
     1    55    54    2
     2    54    53    1
     3    53    52    1
     4    53    56    1
     5    52    46   am
     6    47    46    2
     7    36    35    2
     8    46    45    1
     9    45    44    1
    10    45    48    1
    11    35    34    1
    12    56    57    1
    13    48    49    1
    14    33    34    1
    15    34    37    1
    16    57    58    1
    17    49    50   ar
    18    49    51   ar
    19    60    58   am
    20    37    38    1
    21    58    59    2
    22    84    85    1
    23    91    90    2
    24    88    85    1
    25    88    89    1
    26    38    39   ar
    27    38    40   ar
    28    39    41   ar
    29    90    92   am
    30    90    89    1
    31    85    86    1
    32    40    42   ar
    33    86    87    2
    34    41    43   ar
    35    42    43   ar
    36    82    81    2
    37    83    80    1
    38    81    80    1
    39     5     6    1
    40     5     2    1
    41     1     2    1
    42    80    79    1
    43     8     6   ar
    44     8    10   ar
    45     6     7   ar
    46     2     3    1
    47    93    94    1
    48     4     3    2
    49    10    11   ar
    50    79    75   am
    51    97    94    1
    52    97    98    1
    53     7     9   ar
    54    94    95    1
    55    11     9   ar
    56    11    12    1
    57    19    18    1
    58    19    13    1
    59    75    76    2
    60    75    74    1
    61    98   100   ar
    62    98    99   ar
    63    95    96    2
    64    18    17    1
    65    17    14    1
    66   100   102   ar
    67    78    77    1
    68    13    14    1
    69    99   101   ar
    70    14    15    1
    71    64    63    2
    72    74    77    1
    73    74    73    1
    74   102   103   ar
    75   101   103   ar
    76    63    73   am
    77    63    62    1
    78   103   104    1
    79    15    16    2
    80    24    21    1
    81    62    65    1
    82    62    61    1
    83    65    66    1
    84    67    66   ar
    85    67    69   ar
    86    21    20    1
    87    21    22    1
    88    66    68   ar
    89    69    71   ar
    90    22    23    2
    91    22    25   am
    92    68    70   ar
    93    71    70   ar
    94    71    72    1
    95    25    26    1
    96    31    30    2
    97    30    32   am
    98    30    29    1
    99    26    29    1
   100    26    27    1
   101    27    28    2
