@<TRIPOS>MOLECULE
tmp/1eqbA00.pdb
 127 121 0 0 0
SMALL
GASTEIGER

@<TRIPOS>ATOM
      1  N         12.4690   92.3870   41.2980 N.3    34  SER34      -0.1217
      2  CA        12.2620   93.0830   42.5620 C.3    34  SER34       0.1889
      3  C         13.2630   94.1990   42.8700 C.2    34  SER34       0.2288
      4  O         13.1640   94.8510   43.9190 O.2    34  SER34      -0.2866
      5  CB        12.2670   92.0780   43.7050 C.3    34  SER34       0.2089
      6  OG        13.4580   91.3180   43.6820 O.3    34  SER34      -0.2183
      7  N          9.7890   96.3390   56.4690 N.3    96  SER96      -0.1202
      8  CA         9.9130   95.6630   55.1860 C.3    96  SER96       0.2020
      9  C          8.5810   95.0990   54.7560 C.2    96  SER96       0.2619
     10  O          7.5810   95.2700   55.4370 O.2    96  SER96      -0.2717
     11  CB        10.9060   94.5080   55.3130 C.3    96  SER96       0.2103
     12  OG        10.4260   93.5310   56.2300 O.3    96  SER96      -0.2182
     13  N          8.5790   94.4070   53.6240 N.am   97  GLY97      -0.1942
     14  CA         7.3500   93.8150   53.1370 C.3    97  GLY97       0.2014
     15  C          6.8690   92.6970   54.0510 C.2    97  GLY97       0.2639
     16  O          5.6740   92.5890   54.3450 O.2    97  GLY97      -0.2714
     17  N          7.8060   91.8620   54.4970 N.am   98  SER98      -0.1949
     18  CA         7.4860   90.7520   55.3860 C.3    98  SER98       0.1924
     19  C          6.8460   91.2740   56.6630 C.2    98  SER98       0.2314
     20  O          5.8400   90.7370   57.1260 O.2    98  SER98      -0.2863
     21  CB         8.7510   89.9750   55.7210 C.3    98  SER98       0.2116
     22  OG         9.3200   89.4620   54.5340 O.3    98  SER98      -0.2180
     23  N          3.2930   92.5780   56.0700 N.3   101  ASN101     -0.1240
     24  CA         2.3960   91.4220   55.9770 C.3   101  ASN101      0.1653
     25  C          2.1590   90.7770   57.3440 C.2   101  ASN101      0.2266
     26  O          1.0300   90.4610   57.7060 O.2   101  ASN101     -0.2867
     27  CB         2.9600   90.3680   55.0160 C.3   101  ASN101      0.1155
     28  CG         2.9400   90.8270   53.5650 C.2   101  ASN101      0.2627
     29  OD1        2.3250   91.8410   53.2370 O.2   101  ASN101     -0.2716
     30  ND2        3.6040   90.0720   52.6870 N.am  101  ASN101     -0.0877
     31  N          4.0710   84.7660   47.1280 N.3   125  HIS125     -0.1241
     32  CA         5.2520   85.0740   47.9190 C.3   125  HIS125      0.1621
     33  C          5.3870   84.1790   49.1540 C.2   125  HIS125      0.2264
     34  O          4.4120   83.5690   49.5980 O.2   125  HIS125     -0.2867
     35  CB         5.2270   86.5450   48.3390 C.3   125  HIS125      0.0745
     36  CG         6.4510   86.9740   49.0800 C.ar  125  HIS125      0.0817
     37  ND1        6.4420   87.2640   50.4280 N.ar  125  HIS125     -0.2268
     38  CD2        7.7330   87.1120   48.6710 C.ar  125  HIS125      0.1154
     39  CE1        7.6690   87.5610   50.8170 C.ar  125  HIS125      0.1986
     40  NE2        8.4720   87.4770   49.7690 N.ar  125  HIS125     -0.2212
     41  N          3.0070   84.3220   51.8320 N.3   128  HIS128     -0.1241
     42  CA         1.6360   84.0340   51.4230 C.3   128  HIS128      0.1621
     43  C          1.2420   82.5980   51.7480 C.2   128  HIS128      0.2264
     44  O          0.3640   82.0160   51.0970 O.2   128  HIS128     -0.2867
     45  CB         1.4590   84.3020   49.9300 C.3   128  HIS128      0.0745
     46  CG         1.6120   85.7420   49.5620 C.ar  128  HIS128      0.0817
     47  ND1        1.6860   86.1740   48.2560 N.ar  128  HIS128     -0.2268
     48  CD2        1.7090   86.8530   50.3310 C.ar  128  HIS128      0.1154
     49  CE1        1.8230   87.4890   48.2360 C.ar  128  HIS128      0.1986
     50  NE2        1.8400   87.9260   49.4840 N.ar  128  HIS128     -0.2212
     51  N          1.3280   88.6890   44.5050 N.3   173  PHE173     -0.1227
     52  CA         2.2540   87.7270   43.9450 C.3   173  PHE173      0.1736
     53  C          3.6720   88.2850   43.8430 C.2   173  PHE173      0.2596
     54  O          3.8870   89.4950   43.9500 O.2   173  PHE173     -0.2718
     55  CB         1.7450   87.3640   42.5610 C.3   173  PHE173      0.0547
     56  CG         1.4760   88.5640   41.7080 C.ar  173  PHE173     -0.0202
     57  CD1        2.5190   89.2280   41.0650 C.ar  173  PHE173     -0.0042
     58  CD2        0.1900   89.0670   41.5900 C.ar  173  PHE173     -0.0042
     59  CE1        2.2770   90.3830   40.3170 C.ar  173  PHE173     -0.0003
     60  CE2       -0.0620   90.2190   40.8470 C.ar  173  PHE173     -0.0003
     61  CZ         0.9820   90.8770   40.2110 C.ar  173  PHE173     -0.0000
     62  N          4.6340   87.3920   43.6220 N.am  174  SER174     -0.1952
     63  CA         6.0400   87.7780   43.4700 C.3   174  SER174      0.1924
     64  C          6.5060   87.3950   42.0660 C.2   174  SER174      0.2314
     65  O          7.4870   87.9450   41.5510 O.2   174  SER174     -0.2863
     66  CB         6.9300   87.0660   44.5090 C.3   174  SER174      0.2116
     67  OG         6.6710   87.5030   45.8350 O.3   174  SER174     -0.2180
     68  N         -1.4190   92.1940   48.6520 N.3   199  ASP199     -0.1239
     69  CA        -0.0110   92.5620   48.7790 C.3   199  ASP199      0.1674
     70  C          0.4350   92.9840   47.3890 C.2   199  ASP199      0.2266
     71  O          0.6880   92.1260   46.5400 O.2   199  ASP199     -0.2867
     72  CB         0.7850   91.3310   49.2410 C.3   199  ASP199      0.1410
     73  CG         2.2850   91.5830   49.3730 C.2   199  ASP199      0.3668
     74  OD1        2.7980   92.6290   48.9500 O.co2 199  ASP199     -0.2456
     75  OD2        2.9630   90.6940   49.9070 O.co2 199  ASP199     -0.2456
     76  N          3.2610   94.6980   46.5350 N.3   201  ALA201     -0.1231
     77  CA         4.6780   95.0740   46.5150 C.3   201  ALA201      0.1694
     78  C          5.2780   95.2130   45.1170 C.2   201  ALA201      0.2592
     79  O          5.8510   96.2440   44.7850 O.2   201  ALA201     -0.2718
     80  CB         5.4950   94.0730   47.3250 C.3   201  ALA201      0.0304
     81  N          5.1550   94.1710   44.3080 N.am  202  HIS202     -0.1976
     82  CA         5.7060   94.2000   42.9620 C.3   202  HIS202      0.1656
     83  C          5.0860   95.2170   41.9970 C.2   202  HIS202      0.2291
     84  O          5.7870   95.7790   41.1560 O.2   202  HIS202     -0.2864
     85  CB         5.6140   92.8130   42.3160 C.3   202  HIS202      0.0771
     86  CG         6.8840   92.0230   42.3850 C.ar  202  HIS202      0.0820
     87  ND1        7.2440   91.2840   43.4910 N.ar  202  HIS202     -0.2267
     88  CD2        7.8830   91.8640   41.4850 C.ar  202  HIS202      0.1154
     89  CE1        8.4110   90.7040   43.2690 C.ar  202  HIS202      0.1986
     90  NE2        8.8200   91.0400   42.0590 N.ar  202  HIS202     -0.2212
     91  N          5.8710   97.1340   49.3900 N.3   225  THR225     -0.1218
     92  CA         7.1930   97.5360   49.7950 C.3   225  THR225      0.1862
     93  C          7.3720   98.8820   49.0840 C.2   225  THR225      0.2287
     94  O          6.5510   99.2670   48.2440 O.2   225  THR225     -0.2866
     95  CB         8.2570   96.5500   49.3270 C.3   225  THR225      0.1770
     96  OG1        8.2320   96.4560   47.9030 O.3   225  THR225     -0.2211
     97  CG2        8.0180   95.1810   49.9410 C.3   225  THR225      0.0375
     98  N         10.5310   99.6920   47.8540 N.3   227  HIS227     -0.1226
     99  CA        11.7440   99.5200   47.0510 C.3   227  HIS227      0.1752
    100  C         11.6940   98.7640   45.7160 C.2   227  HIS227      0.2595
    101  O         12.7340   98.5380   45.1080 O.2   227  HIS227     -0.2718
    102  CB        12.8520   98.8930   47.9220 C.3   227  HIS227      0.0759
    103  CG        12.4820   97.5780   48.5480 C.ar  227  HIS227      0.0818
    104  ND1       11.5610   97.4660   49.5680 N.ar  227  HIS227     -0.2268
    105  CD2       12.9260   96.3220   48.3030 C.ar  227  HIS227      0.1154
    106  CE1       11.4550   96.1980   49.9260 C.ar  227  HIS227      0.1986
    107  NE2       12.2720   95.4840   49.1730 N.ar  227  HIS227     -0.2212
    108  N         10.5160   98.3660   45.2500 N.am  228  LYS228     -0.1980
    109  CA        10.4440   97.6410   43.9790 C.3   228  LYS228      0.1596
    110  C         10.1080   98.5890   42.8330 C.2   228  LYS228      0.2287
    111  O         10.8880   99.4800   42.5200 O.2   228  LYS228     -0.2864
    112  CB         9.4150   96.5090   44.0680 C.3   228  LYS228      0.0298
    113  CG         9.8180   95.3970   45.0350 C.3   228  LYS228      0.0038
    114  CD         8.8140   94.2450   45.0210 C.3   228  LYS228      0.0206
    115  CE         9.2470   93.1100   45.9210 C.3   228  LYS228      0.1093
    116  NZ         9.3360   93.5880   47.3110 N.3   228  LYS228     -0.1314
    117  N         14.2310  100.5480   50.9120 N.3   234  ARG234     -0.1245
    118  CA        13.7260   99.2420   51.3180 C.3   234  ARG234      0.1563
    119  C         12.8690   99.4330   52.5650 C.2   234  ARG234      0.2260
    120  O         13.3650   99.8560   53.6250 O.2   234  ARG234     -0.2867
    121  CB        14.8660   98.2700   51.6310 C.3   234  ARG234      0.0307
    122  CG        15.9720   98.2630   50.6090 C.3   234  ARG234      0.0489
    123  CD        16.9330   97.1260   50.8510 C.3   234  ARG234      0.2205
    124  NE        16.3750   95.8870   50.3260 N.pl3 234  ARG234     -0.0865
    125  CZ        16.3660   95.5660   49.0340 C.cat 234  ARG234      0.5346
    126  NH1       16.9030   96.3830   48.1310 N.pl3 234  ARG234      0.1354
    127  NH2       15.7790   94.4430   48.6390 N.pl3 234  ARG234      0.1354
@<TRIPOS>BOND
     1    61    59   ar
     2    61    60   ar
     3    59    57   ar
     4    60    58   ar
     5    57    56   ar
     6    84    83    2
     7     1     2    1
     8    88    90   ar
     9    88    86   ar
    10    65    64    2
    11    58    56   ar
    12    56    55    1
    13    83    82    1
    14    90    89   ar
    15    64    63    1
    16    85    86    1
    17    85    82    1
    18    86    87   ar
    19   111   110    2
    20    55    52    1
    21     2     3    1
    22     2     5    1
    23   110   109    1
    24     3     4    2
    25    82    81    1
    26    89    87   ar
    27    63    62    1
    28    63    66    1
    29    62    53   am
    30     6     5    1
    31    53    52    1
    32    53    54    2
    33    52    51    1
    34   109   112    1
    35   109   108    1
    36   112   113    1
    37    81    78   am
    38    66    67    1
    39    79    78    2
    40   114   113    1
    41   114   115    1
    42   101   100    2
    43    78    77    1
    44   108   100   am
    45   100    99    1
    46   115   116    1
    47    77    76    1
    48    77    80    1
    49    71    70    2
    50    99    98    1
    51    99   102    1
    52    31    32    1
    53    70    69    1
    54    96    95    1
    55    32    35    1
    56    32    33    1
    57   102   103    1
    58   126   125    1
    59    49    47   ar
    60    49    50   ar
    61    94    93    2
    62    47    46   ar
    63   105   103   ar
    64   105   107   ar
    65    35    36    1
    66   103   104   ar
    67   127   125    1
    68    68    69    1
    69    38    36   ar
    70    38    40   ar
    71    69    72    1
    72    74    73   ar
    73   125   124    2
    74    36    37   ar
    75    93    92    1
    76    33    34    2
    77   107   106   ar
    78    72    73    1
    79    95    92    1
    80    95    97    1
    81    73    75   ar
    82    91    92    1
    83    50    48   ar
    84    46    45    1
    85    46    48   ar
    86   104   106   ar
    87    40    39   ar
    88    45    42    1
    89   124   123    1
    90    37    39   ar
    91   122   123    1
    92   122   121    1
    93   117   118    1
    94    44    43    2
    95   118   121    1
    96   118   119    1
    97    42    43    1
    98    42    41    1
    99   119   120    2
   100    30    28   am
   101    14    13    1
   102    14    15    1
   103    29    28    2
   104    28    27    1
   105    13     9   am
   106    15    16    2
   107    15    17   am
   108    17    18    1
   109    22    21    1
   110     9     8    1
   111     9    10    2
   112    27    24    1
   113     8    11    1
   114     8     7    1
   115    11    12    1
   116    18    21    1
   117    18    19    1
   118    24    23    1
   119    24    25    1
   120    19    20    2
   121    25    26    2
