@<TRIPOS>MOLECULE
tmp/1eqcA00.pdb
 135 132 0 0 0
SMALL
GASTEIGER

@<TRIPOS>ATOM
      1  N         35.2210   33.8790   46.9810 N.3    21  GLU21      -0.1245
      2  CA        35.5560   35.1650   47.6110 C.3    21  GLU21       0.1567
      3  C         36.7270   35.7590   46.8520 C.2    21  GLU21       0.2260
      4  O         37.8030   35.1760   46.8340 O.2    21  GLU21      -0.2867
      5  CB        35.9150   34.9420   49.0940 C.3    21  GLU21       0.0388
      6  CG        34.6980   34.3250   49.8280 C.3    21  GLU21       0.1160
      7  CD        34.8140   34.5100   51.3340 C.2    21  GLU21       0.3649
      8  OE1       35.3350   35.5740   51.7510 O.co2  21  GLU21      -0.2457
      9  OE2       34.3840   33.5680   52.0350 O.co2  21  GLU21      -0.2457
     10  N         39.0170   37.9950   47.3970 N.3    23  TYR23      -0.1241
     11  CA        40.3010   38.1470   48.0450 C.3    23  TYR23       0.1605
     12  C         41.0310   36.8200   48.3070 C.2    23  TYR23       0.2264
     13  O         42.2590   36.8190   48.4420 O.2    23  TYR23      -0.2867
     14  CB        40.2180   38.9710   49.3280 C.3    23  TYR23       0.0534
     15  CG        39.8300   38.2300   50.5970 C.ar   23  TYR23      -0.0201
     16  CD1       38.5070   38.0040   50.9200 C.ar   23  TYR23      -0.0009
     17  CD2       40.8170   37.7650   51.4570 C.ar   23  TYR23      -0.0009
     18  CE1       38.1730   37.3240   52.1030 C.ar   23  TYR23       0.0417
     19  CE2       40.4850   37.0970   52.6380 C.ar   23  TYR23       0.0417
     20  CZ        39.1620   36.8860   52.9380 C.ar   23  TYR23       0.1957
     21  OH        38.8390   36.2060   54.1180 O.3    23  TYR23      -0.2866
     22  N         26.2180   29.8840   54.5650 N.3   129  HIS129     -0.1241
     23  CA        27.0020   31.1250   54.5340 C.3   129  HIS129      0.1621
     24  C         26.3330   32.2270   53.7310 C.2   129  HIS129      0.2264
     25  O         26.6980   33.3910   53.8800 O.2   129  HIS129     -0.2867
     26  CB        28.3640   30.8110   53.9070 C.3   129  HIS129      0.0745
     27  CG        29.5280   31.5820   54.4510 C.ar  129  HIS129      0.0817
     28  ND1       30.0480   31.4110   55.7020 N.ar  129  HIS129     -0.2268
     29  CD2       30.2820   32.5390   53.8280 C.ar  129  HIS129      0.1154
     30  CE1       31.0980   32.2110   55.8660 C.ar  129  HIS129      0.1986
     31  NE2       31.2410   32.9170   54.7230 N.ar  129  HIS129     -0.2212
     32  N         27.5800   41.3690   52.1280 N.3   138  PHE138     -0.1241
     33  CA        28.9960   41.1310   51.8790 C.3   138  PHE138      0.1605
     34  C         29.1410   40.2660   50.6230 C.2   138  PHE138      0.2264
     35  O         28.2540   39.4650   50.3190 O.2   138  PHE138     -0.2867
     36  CB        29.6660   40.3900   53.0480 C.3   138  PHE138      0.0534
     37  CG        29.5420   40.9950   54.4160 C.ar  138  PHE138     -0.0203
     38  CD1       29.4390   42.3640   54.6170 C.ar  138  PHE138     -0.0042
     39  CD2       29.5640   40.1780   55.5460 C.ar  138  PHE138     -0.0042
     40  CE1       29.3290   42.8830   55.8920 C.ar  138  PHE138     -0.0003
     41  CE2       29.4590   40.6920   56.8210 C.ar  138  PHE138     -0.0003
     42  CZ        29.3380   42.0610   57.0040 C.ar  138  PHE138     -0.0000
     43  N         30.8750   37.7090   50.3590 N.3   140  ASN140     -0.1240
     44  CA        30.8930   36.2880   50.7810 C.3   140  ASN140      0.1653
     45  C         29.5330   35.7110   51.0780 C.2   140  ASN140      0.2266
     46  O         29.4140   34.5010   51.3770 O.2   140  ASN140     -0.2867
     47  CB        31.8880   36.1700   51.9320 C.3   140  ASN140      0.1155
     48  CG        31.5130   37.1030   53.0730 C.2   140  ASN140      0.2627
     49  OD1       30.4970   36.9000   53.7240 O.2   140  ASN140     -0.2716
     50  ND2       32.3620   38.0920   53.3180 N.am  140  ASN140     -0.0877
     51  N         25.4460   32.3760   58.5100 N.3   185  ASN185     -0.1225
     52  CA        26.6770   33.1020   58.8200 C.3   185  ASN185      0.1785
     53  C         26.4750   34.6200   58.8880 C.2   185  ASN185      0.2597
     54  O         25.8500   35.1700   57.9810 O.2   185  ASN185     -0.2718
     55  CB        27.6900   32.8590   57.6610 C.3   185  ASN185      0.1169
     56  CG        28.9920   33.5970   57.9690 C.2   185  ASN185      0.2627
     57  OD1       29.6200   33.3040   58.9920 O.2   185  ASN185     -0.2716
     58  ND2       29.3430   34.5300   57.1040 N.am  185  ASN185     -0.0877
     59  N         26.9490   35.2670   59.9370 N.am  186  GLU186     -0.1979
     60  CA        26.9800   36.7170   60.0380 C.3   186  GLU186      0.1602
     61  C         25.8020   37.5110   59.5390 C.2   186  GLU186      0.2287
     62  O         25.9340   38.3930   58.6590 O.2   186  GLU186     -0.2864
     63  CB        28.2670   37.2310   59.3050 C.3   186  GLU186      0.0415
     64  CG        29.5560   36.7500   59.9740 C.3   186  GLU186      0.1163
     65  CD        30.7970   37.5240   59.6650 C.2   186  GLU186      0.3649
     66  OE1       30.7680   38.4830   58.8400 O.co2 186  GLU186     -0.2457
     67  OE2       31.8780   37.2360   60.2350 O.co2 186  GLU186     -0.2457
     68  N         37.6850   40.0770   65.0000 N.3   249  TYR249     -0.1241
     69  CA        38.7740   40.6700   64.2060 C.3   249  TYR249      0.1605
     70  C         39.0610   42.1050   64.6750 C.2   249  TYR249      0.2264
     71  O         38.2300   42.6970   65.3760 O.2   249  TYR249     -0.2867
     72  CB        38.3440   40.7630   62.7640 C.3   249  TYR249      0.0534
     73  CG        38.1230   39.4380   62.0570 C.ar  249  TYR249     -0.0201
     74  CD1       39.2420   38.7300   61.5990 C.ar  249  TYR249     -0.0009
     75  CD2       36.8600   38.9180   61.9040 C.ar  249  TYR249     -0.0009
     76  CE1       39.0500   37.5250   60.9610 C.ar  249  TYR249      0.0417
     77  CE2       36.6700   37.6920   61.2550 C.ar  249  TYR249      0.0417
     78  CZ        37.7800   37.0210   60.7920 C.ar  249  TYR249      0.1957
     79  OH        37.6240   35.8390   60.1030 O.3   249  TYR249     -0.2866
     80  N         38.5590   46.0640   60.7350 N.3   252  PHE252     -0.1241
     81  CA        37.5340   46.6070   59.8570 C.3   252  PHE252      0.1605
     82  C         37.0780   48.0140   60.1990 C.2   252  PHE252      0.2264
     83  O         35.9550   48.3900   59.8780 O.2   252  PHE252     -0.2867
     84  CB        36.3360   45.6510   59.7060 C.3   252  PHE252      0.0534
     85  CG        36.7480   44.4160   58.9290 C.ar  252  PHE252     -0.0203
     86  CD1       37.1340   44.5040   57.6160 C.ar  252  PHE252     -0.0042
     87  CD2       36.7650   43.1750   59.5630 C.ar  252  PHE252     -0.0042
     88  CE1       37.5210   43.3740   56.9060 C.ar  252  PHE252     -0.0003
     89  CE2       37.1530   42.0500   58.8650 C.ar  252  PHE252     -0.0003
     90  CZ        37.5390   42.1430   57.5310 C.ar  252  PHE252     -0.0000
     91  N         35.5060   32.2860   63.7580 N.3   286  GLU286     -0.1245
     92  CA        36.3710   32.9820   62.8370 C.3   286  GLU286      0.1567
     93  C         37.2740   33.9700   63.6010 C.2   286  GLU286      0.2260
     94  O         36.8220   34.6130   64.5380 O.2   286  GLU286     -0.2867
     95  CB        35.6420   33.8160   61.7800 C.3   286  GLU286      0.0388
     96  CG        34.8690   33.0550   60.7380 C.3   286  GLU286      0.1160
     97  CD        34.3770   33.9310   59.5930 C.2   286  GLU286      0.3649
     98  OE1       34.9970   34.9990   59.3510 O.co2 286  GLU286     -0.2457
     99  OE2       33.4140   33.5470   58.9260 O.co2 286  GLU286     -0.2457
    100  N         40.0590   42.5030   50.0790 N.3   298  LEU298     -0.1245
    101  CA        39.4260   42.0460   51.3290 C.3   298  LEU298      0.1561
    102  C         38.1300   42.8040   51.6070 C.2   298  LEU298      0.2260
    103  O         37.1240   42.2580   52.0780 O.2   298  LEU298     -0.2867
    104  CB        40.3900   42.2940   52.4890 C.3   298  LEU298      0.0270
    105  CG        39.9060   41.9420   53.8950 C.3   298  LEU298      0.0019
    106  CD1       39.6630   40.4390   54.0070 C.3   298  LEU298      0.0001
    107  CD2       40.9490   42.4210   54.9100 C.3   298  LEU298      0.0001
    108  N         40.2080   31.6020   60.2370 N.3   357  TRP357     -0.1241
    109  CA        39.7900   31.8820   58.8450 C.3   357  TRP357      0.1605
    110  C         41.0170   32.3390   58.0960 C.2   357  TRP357      0.2264
    111  O         41.5550   33.4320   58.3630 O.2   357  TRP357     -0.2867
    112  CB        38.7070   33.0240   58.8330 C.3   357  TRP357      0.0550
    113  CG        38.2390   33.1520   57.3890 C.ar  357  TRP357      0.0003
    114  CD1       38.9010   33.8050   56.3950 C.ar  357  TRP357      0.0946
    115  CD2       37.0920   32.5520   56.7970 C.ar  357  TRP357      0.0152
    116  NE1       38.2050   33.6560   55.1970 N.ar  357  TRP357     -0.2442
    117  CE2       37.1000   32.8910   55.4260 C.ar  357  TRP357      0.0810
    118  CE3       36.0350   31.7710   57.2800 C.ar  357  TRP357      0.0012
    119  CZ2       36.1010   32.4880   54.5350 C.ar  357  TRP357      0.0191
    120  CZ3       35.0460   31.3770   56.4100 C.ar  357  TRP357      0.0001
    121  CH2       35.0770   31.7300   55.0410 C.ar  357  TRP357      0.0015
    122  N         45.7280   35.5860   56.1730 N.3   367  TRP367     -0.1241
    123  CA        44.4900   34.8360   56.1720 C.3   367  TRP367      0.1605
    124  C         44.6890   33.3520   55.8100 C.2   367  TRP367      0.2264
    125  O         43.7120   32.6520   55.4980 O.2   367  TRP367     -0.2867
    126  CB        43.5830   35.5040   55.0960 C.3   367  TRP367      0.0550
    127  CG        43.2830   36.9540   55.4470 C.ar  367  TRP367      0.0003
    128  CD1       43.9440   38.0580   55.0170 C.ar  367  TRP367      0.0946
    129  CD2       42.2620   37.4030   56.3420 C.ar  367  TRP367      0.0152
    130  NE1       43.3910   39.1990   55.5900 N.ar  367  TRP367     -0.2442
    131  CE2       42.3500   38.8060   56.4090 C.ar  367  TRP367      0.0810
    132  CE3       41.2740   36.7570   57.1040 C.ar  367  TRP367      0.0012
    133  CZ2       41.4970   39.5690   57.1910 C.ar  367  TRP367      0.0191
    134  CZ3       40.4170   37.5180   57.8730 C.ar  367  TRP367      0.0001
    135  CH2       40.5260   38.9180   57.9210 C.ar  367  TRP367      0.0015
@<TRIPOS>BOND
     1     4     3    2
     2     3     2    1
     3     1     2    1
     4    10    11    1
     5     2     5    1
     6    11    12    1
     7    11    14    1
     8    12    13    2
     9     5     6    1
    10    14    15    1
    11     6     7    1
    12   100   101    1
    13    35    34    2
    14    43    44    1
    15    15    16   ar
    16    15    17   ar
    17    34    33    1
    18    44    45    1
    19    44    47    1
    20    16    18   ar
    21    45    46    2
    22   101   102    1
    23   101   104    1
    24     7     8   ar
    25     7     9   ar
    26    17    19   ar
    27   102   103    2
    28    33    32    1
    29    33    36    1
    30    47    48    1
    31    18    20   ar
    32   104   105    1
    33    19    20   ar
    34    20    21    1
    35    36    37    1
    36    48    50   am
    37    48    49    2
    38    24    25    2
    39    24    23    1
    40    29    27   ar
    41    29    31   ar
    42   105   106    1
    43   105   107    1
    44    26    27    1
    45    26    23    1
    46    37    38   ar
    47    37    39   ar
    48    27    28   ar
    49    23    22    1
    50   119   121   ar
    51   119   117   ar
    52    38    40   ar
    53    31    30   ar
    54   128   127   ar
    55   128   130   ar
    56   121   120   ar
    57   126   127    1
    58   126   123    1
    59   116   117   ar
    60   116   114   ar
    61   117   115   ar
    62   127   129   ar
    63   125   124    2
    64    39    41   ar
    65   130   131   ar
    66    28    30   ar
    67   124   123    1
    68    40    42   ar
    69   123   122    1
    70   129   131   ar
    71   129   132   ar
    72   114   113   ar
    73   131   133   ar
    74   120   118   ar
    75   115   118   ar
    76   115   113   ar
    77    41    42   ar
    78    88    90   ar
    79    88    86   ar
    80   132   134   ar
    81    58    56   am
    82   133   135   ar
    83   113   112    1
    84    90    89   ar
    85    86    85   ar
    86    55    56    1
    87    55    52    1
    88   134   135   ar
    89    56    57    2
    90    54    53    2
    91   110   111    2
    92   110   109    1
    93    51    52    1
    94    62    61    2
    95    52    53    1
    96   112   109    1
    97    66    65   ar
    98   109   108    1
    99    89    87   ar
   100    53    59   am
   101    99    97   ar
   102    85    87   ar
   103    85    84    1
   104    63    64    1
   105    63    60    1
   106    98    97   ar
   107    61    60    1
   108    97    96    1
   109    65    64    1
   110    65    67   ar
   111    84    81    1
   112    81    82    1
   113    81    80    1
   114    83    82    2
   115    59    60    1
   116    79    78    1
   117    96    95    1
   118    78    76   ar
   119    78    77   ar
   120    76    74   ar
   121    77    75   ar
   122    74    73   ar
   123    95    92    1
   124    75    73   ar
   125    73    72    1
   126    72    69    1
   127    92    93    1
   128    92    91    1
   129    93    94    2
   130    69    70    1
   131    69    68    1
   132    70    71    2
