@<TRIPOS>MOLECULE
tmp/1eqdA01.pdb
 96 91 0 0 0
SMALL
GASTEIGER

@<TRIPOS>ATOM
      1  N          6.8930    8.9980   25.0160 N.3     4  LYS4       -0.1231
      2  CA         6.1240    8.0150   25.7600 C.3     4  LYS4        0.1693
      3  C          4.6600    8.3980   25.9680 C.2     4  LYS4        0.2592
      4  O          4.3280    9.4590   26.5040 O.2     4  LYS4       -0.2718
      5  CB         6.7270    7.7690   27.1500 C.3     4  LYS4        0.0285
      6  CG         8.0080    6.9580   27.1540 C.3     4  LYS4        0.0035
      7  CD         7.8440    5.6670   26.3550 C.3     4  LYS4        0.0206
      8  CE         9.0830    5.4550   25.4940 C.3     4  LYS4        0.1093
      9  NZ        10.1260    6.4500   25.8570 N.3     4  LYS4       -0.1314
     10  N          3.7980    7.4590   25.5490 N.am    5  ASN5       -0.1974
     11  CA         2.4120    7.5370   26.0010 C.3     5  ASN5        0.1688
     12  C          2.2710    6.7130   27.2860 C.2     5  ASN5        0.2292
     13  O          2.0330    5.4980   27.2270 O.2     5  ASN5       -0.2864
     14  CB         1.4360    7.0660   24.9360 C.3     5  ASN5        0.1181
     15  CG        -0.0100    7.1860   25.3850 C.2     5  ASN5        0.2629
     16  OD1       -0.2910    7.6000   26.5130 O.2     5  ASN5       -0.2716
     17  ND2       -0.9310    6.8000   24.5160 N.am    5  ASN5       -0.0877
     18  N         -7.4580   14.8260   30.7570 N.3    77  GLU77      -0.1245
     19  CA        -7.4900   14.2230   29.4230 C.3    77  GLU77       0.1567
     20  C         -8.2120   12.8750   29.5450 C.2    77  GLU77       0.2260
     21  O         -8.9190   12.4800   28.6200 O.2    77  GLU77      -0.2867
     22  CB        -6.1070   14.0420   28.8160 C.3    77  GLU77       0.0388
     23  CG        -5.2990   15.3320   28.7020 C.3    77  GLU77       0.1160
     24  CD        -6.0150   16.4340   27.9520 C.2    77  GLU77       0.3649
     25  OE1       -6.9740   16.1550   27.1950 O.co2  77  GLU77      -0.2457
     26  OE2       -5.5960   17.6010   28.1170 O.co2  77  GLU77      -0.2457
     27  N         -4.5730   11.2840   33.7630 N.3    81  LYS81      -0.1231
     28  CA        -3.7320   11.9770   32.7930 C.3    81  LYS81       0.1693
     29  C         -4.2290   13.4060   32.5830 C.2    81  LYS81       0.2592
     30  O         -5.4040   13.5900   32.2800 O.2    81  LYS81      -0.2718
     31  CB        -3.7220   11.2230   31.4640 C.3    81  LYS81       0.0285
     32  CG        -2.5890   10.2110   31.3640 C.3    81  LYS81       0.0035
     33  CD        -2.7280    9.3340   30.1280 C.3    81  LYS81       0.0206
     34  CE        -1.9800    9.8970   28.9430 C.3    81  LYS81       0.1093
     35  NZ        -0.5010    9.7300   28.9930 N.3    81  LYS81      -0.1314
     36  N         -3.3620   14.3840   32.7860 N.am   82  TYR82      -0.1962
     37  CA        -3.6230   15.8060   32.8990 C.3    82  TYR82       0.1771
     38  C         -2.7100   16.6340   32.0070 C.2    82  TYR82       0.2620
     39  O         -1.5750   16.2570   31.7300 O.2    82  TYR82      -0.2715
     40  CB        -3.4670   16.2630   34.3820 C.3    82  TYR82       0.0574
     41  CG        -4.4110   15.3930   35.1910 C.ar   82  TYR82      -0.0198
     42  CD1       -5.7650   15.6760   35.2930 C.ar   82  TYR82      -0.0009
     43  CD2       -3.8720   14.2520   35.7930 C.ar   82  TYR82      -0.0009
     44  CE1       -6.5900   14.8370   36.0270 C.ar   82  TYR82       0.0417
     45  CE2       -4.7050   13.4220   36.5210 C.ar   82  TYR82       0.0417
     46  CZ        -6.0400   13.7210   36.6280 C.ar   82  TYR82       0.1957
     47  OH        -6.8590   12.8780   37.3580 O.3    82  TYR82      -0.2866
     48  N         -3.2390   17.7630   31.5560 N.am   83  THR83      -0.1951
     49  CA        -2.4730   18.7920   30.8700 C.3    83  THR83       0.1897
     50  C         -2.4100   19.9900   31.8040 C.2    83  THR83       0.2313
     51  O         -3.4460   20.4350   32.3080 O.2    83  THR83      -0.2863
     52  CB        -3.0980   19.2100   29.5320 C.3    83  THR83       0.1794
     53  OG1       -3.1940   18.0820   28.6440 O.3    83  THR83      -0.2208
     54  CG2       -2.2100   20.2450   28.8360 C.3    83  THR83       0.0378
     55  N          3.3470   24.3230   28.8420 N.3   104  TYR104     -0.1241
     56  CA         2.5010   23.4110   29.5970 C.3   104  TYR104      0.1605
     57  C          3.2480   22.0990   29.8370 C.2   104  TYR104      0.2264
     58  O          4.1840   21.8140   29.0930 O.2   104  TYR104     -0.2867
     59  CB         1.1900   23.1180   28.8410 C.3   104  TYR104      0.0534
     60  CG         1.4100   22.3120   27.5780 C.ar  104  TYR104     -0.0201
     61  CD1        1.8370   22.9140   26.4140 C.ar  104  TYR104     -0.0009
     62  CD2        1.1930   20.9220   27.5470 C.ar  104  TYR104     -0.0009
     63  CE1        2.0570   22.2390   25.2320 C.ar  104  TYR104      0.0417
     64  CE2        1.4100   20.2420   26.3620 C.ar  104  TYR104      0.0417
     65  CZ         1.8270   20.8740   25.2220 C.ar  104  TYR104      0.1957
     66  OH         2.0580   20.1860   24.0400 O.3   104  TYR104     -0.2866
     67  N          2.3940   17.7800   30.4010 N.3   106  THR106     -0.1218
     68  CA         1.4230   16.7250   30.6760 C.3   106  THR106      0.1862
     69  C          1.8930   15.9380   31.8890 C.2   106  THR106      0.2287
     70  O          3.0670   15.9360   32.2670 O.2   106  THR106     -0.2866
     71  CB         1.2890   15.7790   29.4950 C.3   106  THR106      0.1770
     72  OG1        2.5330   15.0740   29.3640 O.3   106  THR106     -0.2211
     73  CG2        1.0900   16.5780   28.2170 C.3   106  THR106      0.0375
     74  N          1.0630   12.1380   33.9860 N.3   108  THR108     -0.1218
     75  CA         0.3040   10.8960   34.1040 C.3   108  THR108      0.1862
     76  C          0.6390   10.2000   35.4130 C.2   108  THR108      0.2287
     77  O          1.8210    9.9670   35.7230 O.2   108  THR108     -0.2866
     78  CB         0.6520    9.9790   32.9240 C.3   108  THR108      0.1770
     79  OG1        0.2820   10.5650   31.6690 O.3   108  THR108     -0.2211
     80  CG2       -0.1180    8.6630   33.0650 C.3   108  THR108      0.0375
     81  N          4.7630   10.1040   35.1460 N.3   120  HIS120     -0.1241
     82  CA         5.4260   10.4830   33.9210 C.3   120  HIS120      0.1621
     83  C          5.0380   11.9300   33.6120 C.2   120  HIS120      0.2264
     84  O          3.8730   12.2800   33.7980 O.2   120  HIS120     -0.2867
     85  CB         5.0240    9.6190   32.7330 C.3   120  HIS120      0.0745
     86  CG         5.4780   10.1800   31.4270 C.ar  120  HIS120      0.0817
     87  ND1        4.7400   11.1200   30.7210 N.ar  120  HIS120     -0.2268
     88  CD2        6.5750    9.9470   30.6780 C.ar  120  HIS120      0.1154
     89  CE1        5.3750   11.4220   29.6150 C.ar  120  HIS120      0.1986
     90  NE2        6.5030   10.7260   29.5510 N.ar  120  HIS120     -0.2212
     91  N          5.7830   15.2970   30.6760 N.3   122  CYS122     -0.1235
     92  CA         6.4290   15.8240   29.4900 C.3   122  CYS122      0.1677
     93  C          6.3050   17.3500   29.5090 C.2   122  CYS122      0.2270
     94  O          5.1920   17.8760   29.4200 O.2   122  CYS122     -0.2867
     95  CB         5.7820   15.2490   28.2330 C.3   122  CYS122      0.0956
     96  SG         6.4430   15.9560   26.7150 S.3   122  CYS122     -0.0801
@<TRIPOS>BOND
     1    66    65    1
     2    17    15   am
     3    14    15    1
     4    14    11    1
     5     1     2    1
     6    65    63   ar
     7    65    64   ar
     8    63    61   ar
     9    15    16    2
    10     8     9    1
    11     8     7    1
    12    10     3   am
    13    10    11    1
    14     2     3    1
    15     2     5    1
    16     3     4    2
    17    11    12    1
    18     7     6    1
    19    64    62   ar
    20    61    60   ar
    21    96    95    1
    22     5     6    1
    23    25    24   ar
    24    13    12    2
    25    62    60   ar
    26    60    59    1
    27    24    26   ar
    28    24    23    1
    29    73    71    1
    30    95    92    1
    31    21    20    2
    32    53    52    1
    33    23    22    1
    34    22    19    1
    35    54    52    1
    36    59    56    1
    37    55    56    1
    38    34    35    1
    39    34    33    1
    40    58    57    2
    41    72    71    1
    42    94    93    2
    43    19    20    1
    44    19    18    1
    45    92    93    1
    46    92    91    1
    47    71    68    1
    48    52    49    1
    49    90    89   ar
    50    90    88   ar
    51    56    57    1
    52    89    87   ar
    53    33    32    1
    54    67    68    1
    55    68    69    1
    56    88    86   ar
    57    87    86   ar
    58    49    48    1
    59    49    50    1
    60    32    31    1
    61    86    85    1
    62    31    28    1
    63    48    38   am
    64    79    78    1
    65    39    38    2
    66    50    51    2
    67    69    70    2
    68    38    37    1
    69    30    29    2
    70    29    36   am
    71    29    28    1
    72    85    82    1
    73    36    37    1
    74    28    27    1
    75    37    40    1
    76    78    80    1
    77    78    75    1
    78    83    84    2
    79    83    82    1
    80    82    81    1
    81    74    75    1
    82    75    76    1
    83    40    41    1
    84    41    42   ar
    85    41    43   ar
    86    42    44   ar
    87    76    77    2
    88    43    45   ar
    89    44    46   ar
    90    45    46   ar
    91    46    47    1
