@<TRIPOS>MOLECULE
tmp/1eqgA07.pdb
 174 167 0 0 0
SMALL
GASTEIGER

@<TRIPOS>ATOM
      1  N         34.0780   29.9170  210.2950 N.3    81  MET81      -0.1245
      2  CA        34.2780   30.7430  209.1130 C.3    81  MET81       0.1570
      3  C         35.2070   30.0060  208.1510 C.2    81  MET81       0.2261
      4  O         34.9860   30.0000  206.9380 O.2    81  MET81      -0.2867
      5  CB        34.8800   32.0960  209.4990 C.3    81  MET81       0.0387
      6  CG        34.9470   33.0930  208.3550 C.3    81  MET81       0.0595
      7  SD        33.3140   33.4560  207.6600 S.3    81  MET81      -0.1393
      8  CE        33.7330   34.0080  206.0180 C.3    81  MET81       0.0692
      9  N         33.3050   27.3300  206.4520 N.3    84  VAL84      -0.1245
     10  CA        32.4810   27.9320  205.4130 C.3    84  VAL84       0.1561
     11  C         33.3170   28.2700  204.1860 C.2    84  VAL84       0.2260
     12  O         32.9270   27.9800  203.0590 O.2    84  VAL84      -0.2867
     13  CB        31.7960   29.2330  205.9330 C.3    84  VAL84       0.0252
     14  CG1       31.2990   30.0750  204.7700 C.3    84  VAL84       0.0019
     15  CG2       30.6360   28.8780  206.8600 C.3    84  VAL84       0.0019
     16  N         32.7650   25.8860  200.7770 N.3    88  ARG88      -0.1245
     17  CA        32.1420   26.5930  199.6560 C.3    88  ARG88       0.1563
     18  C         33.1260   26.7060  198.4910 C.2    88  ARG88       0.2260
     19  O         32.7640   26.4900  197.3360 O.2    88  ARG88      -0.2867
     20  CB        31.6880   28.0030  200.0660 C.3    88  ARG88       0.0307
     21  CG        30.5250   28.0650  201.0530 C.3    88  ARG88       0.0489
     22  CD        29.2660   27.3910  200.5120 C.3    88  ARG88       0.2205
     23  NE        28.0640   27.8400  201.2170 N.pl3  88  ARG88      -0.0865
     24  CZ        26.8810   27.2320  201.1630 C.cat  88  ARG88       0.5346
     25  NH1       26.7160   26.1340  200.4390 N.pl3  88  ARG88       0.1354
     26  NH2       25.8530   27.7250  201.8330 N.pl3  88  ARG88       0.1354
     27  N         27.9920   43.1180  203.9460 N.3   316  TYR316     -0.1227
     28  CA        27.2340   42.8170  202.7400 C.3   316  TYR316      0.1736
     29  C         26.6910   41.3900  202.8000 C.2   316  TYR316      0.2595
     30  O         25.4840   41.1730  202.9030 O.2   316  TYR316     -0.2718
     31  CB        28.1610   42.9860  201.5420 C.3   316  TYR316      0.0548
     32  CG        27.5330   42.7630  200.1940 C.ar  316  TYR316     -0.0200
     33  CD1       27.1010   43.8420  199.4230 C.ar  316  TYR316     -0.0009
     34  CD2       27.4620   41.4810  199.6430 C.ar  316  TYR316     -0.0009
     35  CE1       26.6300   43.6510  198.1230 C.ar  316  TYR316      0.0417
     36  CE2       26.9970   41.2800  198.3600 C.ar  316  TYR316      0.0417
     37  CZ        26.5900   42.3670  197.6000 C.ar  316  TYR316      0.1957
     38  OH        26.1960   42.1730  196.2970 O.3   316  TYR316     -0.2866
     39  N         27.5900   40.4190  202.7350 N.am  317  VAL317     -0.1980
     40  CA        27.1910   39.0240  202.8000 C.3   317  VAL317      0.1595
     41  C         26.4400   38.7350  204.1040 C.2   317  VAL317      0.2287
     42  O         25.4580   37.9940  204.1100 O.2   317  VAL317     -0.2864
     43  CB        28.4230   38.0950  202.7060 C.3   317  VAL317      0.0276
     44  CG1       28.0060   36.6550  202.9290 C.3   317  VAL317      0.0022
     45  CG2       29.1030   38.2720  201.3430 C.3   317  VAL317      0.0022
     46  N         22.8640   39.6560  203.6240 N.3   320  LEU320     -0.1231
     47  CA        22.1800   38.7030  202.7680 C.3   320  LEU320      0.1693
     48  C         21.8990   37.3770  203.4630 C.2   320  LEU320      0.2592
     49  O         20.7880   36.8520  203.3780 O.2   320  LEU320     -0.2718
     50  CB        23.0000   38.4450  201.5080 C.3   320  LEU320      0.0284
     51  CG        22.9940   39.5130  200.4200 C.3   320  LEU320      0.0019
     52  CD1       24.0950   39.2090  199.4020 C.3   320  LEU320      0.0001
     53  CD2       21.6250   39.5420  199.7490 C.3   320  LEU320      0.0001
     54  N         22.9020   36.8410  204.1550 N.am  321  SER321     -0.1952
     55  CA        22.7660   35.5530  204.8360 C.3   321  SER321      0.1924
     56  C         21.7540   35.5410  205.9650 C.2   321  SER321      0.2314
     57  O         21.0240   34.5650  206.1320 O.2   321  SER321     -0.2863
     58  CB        24.1040   35.1110  205.4110 C.3   321  SER321      0.2116
     59  OG        24.3910   35.8360  206.5920 O.3   321  SER321     -0.2180
     60  N         22.5210   35.2610  208.8640 N.3   323  TYR323     -0.1241
     61  CA        23.1090   34.2980  209.7980 C.3   323  TYR323      0.1605
     62  C         23.4380   34.8880  211.1670 C.2   323  TYR323      0.2264
     63  O         23.8990   36.0270  211.2760 O.2   323  TYR323     -0.2867
     64  CB        24.4060   33.7230  209.2230 C.3   323  TYR323      0.0534
     65  CG        24.2570   32.8450  208.0010 C.ar  323  TYR323     -0.0201
     66  CD1       25.3820   32.3970  207.3140 C.ar  323  TYR323     -0.0009
     67  CD2       23.0040   32.4600  207.5310 C.ar  323  TYR323     -0.0009
     68  CE1       25.2650   31.5920  206.1910 C.ar  323  TYR323      0.0417
     69  CE2       22.8800   31.6550  206.4100 C.ar  323  TYR323      0.0417
     70  CZ        24.0160   31.2260  205.7440 C.ar  323  TYR323      0.1957
     71  OH        23.9060   30.4440  204.6190 O.3   323  TYR323     -0.2866
     72  N         30.1090   36.4140  210.4220 N.3   327  LEU327     -0.1245
     73  CA        31.0810   36.1850  209.3630 C.3   327  LEU327      0.1561
     74  C         32.3400   36.9980  209.6150 C.2   327  LEU327      0.2260
     75  O         32.2810   38.0750  210.2020 O.2   327  LEU327     -0.2867
     76  CB        30.4840   36.5530  208.0120 C.3   327  LEU327      0.0270
     77  CG        29.2970   35.6870  207.6180 C.3   327  LEU327      0.0019
     78  CD1       28.8960   36.0550  206.2060 C.3   327  LEU327      0.0001
     79  CD2       29.6650   34.1960  207.7130 C.3   327  LEU327      0.0001
     80  N         27.8670   32.6640  187.2660 N.3   349  PHE349     -0.1241
     81  CA        27.8980   33.6230  188.3540 C.3   349  PHE349      0.1605
     82  C         27.3410   34.9640  187.8740 C.2   349  PHE349      0.2264
     83  O         26.7080   35.6890  188.6400 O.2   349  PHE349     -0.2867
     84  CB        29.3340   33.7590  188.8660 C.3   349  PHE349      0.0534
     85  CG        29.4830   34.6480  190.0660 C.ar  349  PHE349     -0.0203
     86  CD1       28.5290   34.6450  191.0800 C.ar  349  PHE349     -0.0042
     87  CD2       30.6230   35.4390  190.2160 C.ar  349  PHE349     -0.0042
     88  CE1       28.7120   35.4170  192.2350 C.ar  349  PHE349     -0.0003
     89  CE2       30.8180   36.2100  191.3590 C.ar  349  PHE349     -0.0003
     90  CZ        29.8620   36.1990  192.3730 C.ar  349  PHE349     -0.0000
     91  N         23.4280   34.5050  187.6340 N.3   352  LEU352     -0.1231
     92  CA        22.9410   34.4660  189.0070 C.3   352  LEU352      0.1693
     93  C         22.8800   35.8220  189.7170 C.2   352  LEU352      0.2592
     94  O         21.9870   36.0490  190.5300 O.2   352  LEU352     -0.2718
     95  CB        23.8010   33.4780  189.8080 C.3   352  LEU352      0.0284
     96  CG        23.5960   33.2770  191.3150 C.3   352  LEU352      0.0019
     97  CD1       24.2590   31.9830  191.7590 C.3   352  LEU352      0.0001
     98  CD2       24.1850   34.4530  192.0780 C.3   352  LEU352      0.0001
     99  N         23.8050   36.7270  189.4010 N.am  353  TYR353     -0.1976
    100  CA        23.8360   38.0330  190.0550 C.3   353  TYR353      0.1639
    101  C         22.9220   39.1060  189.4760 C.2   353  TYR353      0.2290
    102  O         23.0370   40.2780  189.8330 O.2   353  TYR353     -0.2864
    103  CB        25.2680   38.5690  190.1000 C.3   353  TYR353      0.0560
    104  CG        25.7450   38.9130  191.5000 C.ar  353  TYR353     -0.0198
    105  CD1       26.8930   38.3260  192.0210 C.ar  353  TYR353     -0.0009
    106  CD2       25.0540   39.8250  192.2970 C.ar  353  TYR353     -0.0009
    107  CE1       27.3490   38.6340  193.2960 C.ar  353  TYR353      0.0417
    108  CE2       25.4990   40.1440  193.5780 C.ar  353  TYR353      0.0417
    109  CZ        26.6520   39.5430  194.0700 C.ar  353  TYR353      0.1957
    110  OH        27.1290   39.8510  195.3250 O.3   353  TYR353     -0.2866
    111  N         20.2240   40.7170  190.0440 N.3   355  TRP355     -0.1241
    112  CA        19.2690   40.9670  191.1220 C.3   355  TRP355      0.1605
    113  C         18.3630   42.1800  190.9300 C.2   355  TRP355      0.2264
    114  O         18.1390   42.9710  191.8600 O.2   355  TRP355     -0.2867
    115  CB        20.0310   41.1010  192.4440 C.3   355  TRP355      0.0550
    116  CG        20.7190   39.8360  192.8610 C.ar  355  TRP355      0.0003
    117  CD1       20.5730   38.5970  192.2990 C.ar  355  TRP355      0.0946
    118  CD2       21.5970   39.6660  193.9810 C.ar  355  TRP355      0.0152
    119  NE1       21.2980   37.6680  193.0020 N.ar  355  TRP355     -0.2442
    120  CE2       21.9360   38.2950  194.0410 C.ar  355  TRP355      0.0810
    121  CE3       22.1250   40.5370  194.9430 C.ar  355  TRP355      0.0012
    122  CZ2       22.7820   37.7740  195.0270 C.ar  355  TRP355      0.0191
    123  CZ3       22.9640   40.0210  195.9220 C.ar  355  TRP355      0.0001
    124  CH2       23.2830   38.6490  195.9550 C.ar  355  TRP355      0.0015
    125  N         15.7690   35.2120  199.2510 N.3   486  PHE486     -0.1241
    126  CA        15.7340   34.2690  198.1330 C.3   486  PHE486      0.1605
    127  C         15.8290   32.7970  198.5530 C.2   486  PHE486      0.2264
    128  O         15.9700   32.4820  199.7380 O.2   486  PHE486     -0.2867
    129  CB        16.7930   34.6100  197.0580 C.3   486  PHE486      0.0534
    130  CG        18.1550   34.9770  197.6000 C.ar  486  PHE486     -0.0203
    131  CD1       18.8690   36.0290  197.0280 C.ar  486  PHE486     -0.0042
    132  CD2       18.7340   34.2680  198.6470 C.ar  486  PHE486     -0.0042
    133  CE1       20.1400   36.3750  197.4870 C.ar  486  PHE486     -0.0003
    134  CE2       20.0120   34.6060  199.1180 C.ar  486  PHE486     -0.0003
    135  CZ        20.7150   35.6630  198.5340 C.ar  486  PHE486     -0.0000
    136  N         20.0960   29.9380  195.2690 N.3   490  MET490     -0.1230
    137  CA        20.8260   31.1920  195.1250 C.3   490  MET490      0.1702
    138  C         22.0590   31.2210  196.0400 C.2   490  MET490      0.2592
    139  O         23.1240   31.7080  195.6560 O.2   490  MET490     -0.2718
    140  CB        19.9130   32.3730  195.4490 C.3   490  MET490      0.0401
    141  CG        20.5010   33.7290  195.0900 C.3   490  MET490      0.0596
    142  SD        20.6030   33.9750  193.3020 S.3   490  MET490     -0.1393
    143  CE        18.9480   34.5890  192.9310 C.3   490  MET490      0.0692
    144  N         21.9150   30.6980  197.2510 N.am  491  ILE491     -0.1980
    145  CA        23.0200   30.6650  198.2000 C.3   491  ILE491      0.1595
    146  C         23.9710   29.5040  197.9100 C.2   491  ILE491      0.2287
    147  O         25.1730   29.7100  197.7260 O.2   491  ILE491     -0.2864
    148  CB        22.4990   30.5410  199.6430 C.3   491  ILE491      0.0276
    149  CG1       21.7570   31.8210  200.0290 C.3   491  ILE491      0.0022
    150  CG2       23.6540   30.2880  200.5980 C.3   491  ILE491      0.0022
    151  CD1       21.0620   31.7450  201.3750 C.3   491  ILE491      0.0001
    152  N         25.6170   30.4730  194.7320 N.3   494  GLY494     -0.1210
    153  CA        26.2990   31.7560  194.7670 C.3   494  GLY494      0.1956
    154  C         27.4200   31.8990  195.7830 C.2   494  GLY494      0.2611
    155  O         28.4230   32.5660  195.5120 O.2   494  GLY494     -0.2717
    156  N         27.2750   31.2830  196.9510 N.am  495  ALA495     -0.1979
    157  CA        28.3010   31.3940  197.9830 C.3   495  ALA495      0.1597
    158  C         29.6780   30.9510  197.4810 C.2   495  ALA495      0.2287
    159  O         30.6730   31.6390  197.7070 O.2   495  ALA495     -0.2864
    160  CB        27.9020   30.5890  199.2130 C.3   495  ALA495      0.0319
    161  N         31.0550   33.5990  195.0800 N.3   498  SER498     -0.1202
    162  CA        31.3550   34.8010  195.8500 C.3   498  SER498      0.2020
    163  C         32.5720   34.6800  196.7670 C.2   498  SER498      0.2618
    164  O         33.5210   35.4480  196.6550 O.2   498  SER498     -0.2717
    165  CB        30.1240   35.2080  196.6630 C.3   498  SER498      0.2103
    166  OG        30.4090   36.3390  197.4600 O.3   498  SER498     -0.2182
    167  N         32.5510   33.7110  197.6700 N.am  499  LEU499     -0.1979
    168  CA        33.6600   33.5280  198.5930 C.3   499  LEU499      0.1596
    169  C         34.9760   33.2010  197.8970 C.2   499  LEU499      0.2287
    170  O         36.0460   33.6380  198.3380 O.2   499  LEU499     -0.2864
    171  CB        33.3050   32.4480  199.6220 C.3   499  LEU499      0.0297
    172  CG        32.1040   32.8240  200.5070 C.3   499  LEU499      0.0022
    173  CD1       31.8480   31.7320  201.5220 C.3   499  LEU499      0.0001
    174  CD2       32.3760   34.1470  201.2130 C.3   499  LEU499      0.0001
@<TRIPOS>BOND
     1    80    81    1
     2    91    92    1
     3    82    81    1
     4    82    83    2
     5    81    84    1
     6    84    85    1
     7    92    93    1
     8    92    95    1
     9    99    93   am
    10    99   100    1
    11   101   102    2
    12   101   100    1
    13    93    94    2
    14    95    96    1
    15   111   112    1
    16   100   103    1
    17    85    87   ar
    18    85    86   ar
    19   103   104    1
    20    87    89   ar
    21   113   112    1
    22   113   114    2
    23    86    88   ar
    24   112   115    1
    25    96    97    1
    26    96    98    1
    27    89    90   ar
    28   104   105   ar
    29   104   106   ar
    30   105   107   ar
    31    88    90   ar
    32   106   108   ar
    33   117   116   ar
    34   117   119   ar
    35   115   116    1
    36   116   118   ar
    37   143   142    1
    38   119   120   ar
    39   107   109   ar
    40   142   141    1
    41   108   109   ar
    42   118   120   ar
    43   118   121   ar
    44   120   122   ar
    45   109   110    1
    46   152   153    1
    47   153   154    1
    48   121   123   ar
    49   122   124   ar
    50   161   162    1
    51   141   140    1
    52   137   136    1
    53   137   140    1
    54   137   138    1
    55   155   154    2
    56   139   138    2
    57   154   156   am
    58   162   165    1
    59   162   163    1
    60   123   124   ar
    61   138   144   am
    62    38    37    1
    63   164   163    2
    64   165   166    1
    65   163   167   am
    66   156   157    1
    67   131   133   ar
    68   131   130   ar
    69   129   130    1
    70   129   126    1
    71   144   145    1
    72    19    18    2
    73   158   159    2
    74   158   157    1
    75   133   135   ar
    76    37    35   ar
    77    37    36   ar
    78   130   132   ar
    79   167   168    1
    80   147   146    2
    81   169   170    2
    82   169   168    1
    83   146   145    1
    84   157   160    1
    85    35    33   ar
    86   126   127    1
    87   126   125    1
    88   145   148    1
    89    36    34   ar
    90    18    17    1
    91   135   134   ar
    92   127   128    2
    93   168   171    1
    94   132   134   ar
    95    52    51    1
    96    33    32   ar
    97   171   172    1
    98   148   149    1
    99   148   150    1
   100    34    32   ar
   101    17    20    1
   102    17    16    1
   103    53    51    1
   104   149   151    1
   105    20    21    1
   106    32    31    1
   107    51    50    1
   108    25    24    1
   109   172   174    1
   110   172   173    1
   111    22    21    1
   112    22    23    1
   113    24    23    2
   114    24    26    1
   115    45    43    1
   116    50    47    1
   117    31    28    1
   118    43    40    1
   119    43    44    1
   120    39    40    1
   121    39    29   am
   122    28    29    1
   123    28    27    1
   124    47    48    1
   125    47    46    1
   126    40    41    1
   127    29    30    2
   128    12    11    2
   129    49    48    2
   130    48    54   am
   131    41    42    2
   132    54    55    1
   133    11    10    1
   134    71    70    1
   135    14    13    1
   136    55    58    1
   137    55    56    1
   138    58    59    1
   139    10    13    1
   140    10     9    1
   141    70    68   ar
   142    70    69   ar
   143    13    15    1
   144    56    57    2
   145     8     7    1
   146    68    66   ar
   147    78    77    1
   148    69    67   ar
   149     4     3    2
   150    66    65   ar
   151    67    65   ar
   152    77    79    1
   153    77    76    1
   154     7     6    1
   155    65    64    1
   156    76    73    1
   157     3     2    1
   158     6     5    1
   159    60    61    1
   160     2     5    1
   161     2     1    1
   162    64    61    1
   163    73    74    1
   164    73    72    1
   165    74    75    2
   166    61    62    1
   167    62    63    2
