@<TRIPOS>MOLECULE
tmp/1eqhA06.pdb
 182 174 0 0 0
SMALL
GASTEIGER

@<TRIPOS>ATOM
      1  N         21.6810   27.8110  209.7580 N.3    61  LEU61      -0.1245
      2  CA        22.3310   29.1070  209.6520 C.3    61  LEU61       0.1561
      3  C         21.4090   30.3080  209.8840 C.2    61  LEU61       0.2260
      4  O         21.8910   31.4290  210.0620 O.2    61  LEU61      -0.2867
      5  CB        22.9910   29.2350  208.2830 C.3    61  LEU61       0.0270
      6  CG        24.2670   28.4130  208.0960 C.3    61  LEU61       0.0019
      7  CD1       24.5610   28.2380  206.6180 C.3    61  LEU61       0.0001
      8  CD2       25.4250   29.0960  208.8060 C.3    61  LEU61       0.0001
      9  N         34.1320   29.5440  208.6370 N.3    81  MET81      -0.1245
     10  CA        34.3540   30.4010  207.4800 C.3    81  MET81       0.1570
     11  C         35.3180   29.7360  206.4990 C.2    81  MET81       0.2261
     12  O         35.1790   29.8820  205.2860 O.2    81  MET81      -0.2867
     13  CB        34.9220   31.7560  207.9140 C.3    81  MET81       0.0387
     14  CG        34.9570   32.8010  206.8060 C.3    81  MET81       0.0595
     15  SD        33.2870   33.2020  206.2430 S.3    81  MET81      -0.1393
     16  CE        33.5980   33.6750  204.5010 C.3    81  MET81       0.0692
     17  N         33.3830   27.0370  204.7450 N.3    84  VAL84      -0.1245
     18  CA        32.5370   27.6330  203.7200 C.3    84  VAL84       0.1561
     19  C         33.3600   28.0040  202.4950 C.2    84  VAL84       0.2260
     20  O         33.0040   27.6640  201.3580 O.2    84  VAL84      -0.2867
     21  CB        31.8320   28.9090  204.2460 C.3    84  VAL84       0.0252
     22  CG1       31.2130   29.6820  203.0890 C.3    84  VAL84       0.0019
     23  CG2       30.7520   28.5310  205.2410 C.3    84  VAL84       0.0019
     24  N         32.7970   25.7200  199.0520 N.3    88  ARG88      -0.1245
     25  CA        32.1510   26.4400  197.9550 C.3    88  ARG88       0.1563
     26  C         33.1210   26.5930  196.7810 C.2    88  ARG88       0.2260
     27  O         32.7550   26.3850  195.6210 O.2    88  ARG88      -0.2867
     28  CB        31.6940   27.8310  198.4060 C.3    88  ARG88       0.0307
     29  CG        30.5800   27.8410  199.4290 C.3    88  ARG88       0.0489
     30  CD        29.3280   27.1510  198.9220 C.3    88  ARG88       0.2205
     31  NE        28.1510   27.5810  199.6710 N.pl3  88  ARG88      -0.0865
     32  CZ        26.9490   27.0240  199.5680 C.cat  88  ARG88       0.5346
     33  NH1       26.7550   26.0030  198.7460 N.pl3  88  ARG88       0.1354
     34  NH2       25.9400   27.4890  200.2860 N.pl3  88  ARG88       0.1354
     35  N         28.0680   42.8850  202.5580 N.3   316  TYR316     -0.1227
     36  CA        27.2530   42.6160  201.3710 C.3   316  TYR316      0.1736
     37  C         26.7040   41.1840  201.3730 C.2   316  TYR316      0.2595
     38  O         25.4920   40.9800  201.3530 O.2   316  TYR316     -0.2718
     39  CB        28.1070   42.8660  200.1310 C.3   316  TYR316      0.0548
     40  CG        27.4470   42.6020  198.7980 C.ar  316  TYR316     -0.0200
     41  CD1       26.7990   43.6230  198.1010 C.ar  316  TYR316     -0.0009
     42  CD2       27.5690   41.3570  198.1800 C.ar  316  TYR316     -0.0009
     43  CE1       26.3030   43.4140  196.8100 C.ar  316  TYR316      0.0417
     44  CE2       27.0830   41.1370  196.9010 C.ar  316  TYR316      0.0417
     45  CZ        26.4580   42.1650  196.2140 C.ar  316  TYR316      0.1957
     46  OH        26.0370   41.9500  194.9130 O.3   316  TYR316     -0.2866
     47  N         27.5940   40.1980  201.4030 N.am  317  VAL317     -0.1980
     48  CA        27.1670   38.8040  201.4200 C.3   317  VAL317      0.1595
     49  C         26.4460   38.4640  202.7240 C.2   317  VAL317      0.2287
     50  O         25.5550   37.6150  202.7460 O.2   317  VAL317     -0.2864
     51  CB        28.3650   37.8390  201.2460 C.3   317  VAL317      0.0276
     52  CG1       27.8970   36.4000  201.4000 C.3   317  VAL317      0.0022
     53  CG2       29.0050   38.0440  199.8780 C.3   317  VAL317      0.0022
     54  N         22.9370   39.6520  202.2670 N.3   320  LEU320     -0.1231
     55  CA        22.3920   38.8010  201.2270 C.3   320  LEU320      0.1693
     56  C         22.0670   37.3700  201.6810 C.2   320  LEU320      0.2592
     57  O         21.0540   36.8000  201.2680 O.2   320  LEU320     -0.2718
     58  CB        23.3870   38.8110  200.0610 C.3   320  LEU320      0.0284
     59  CG        23.0420   38.3510  198.6500 C.3   320  LEU320      0.0019
     60  CD1       23.4260   36.9060  198.4930 C.3   320  LEU320      0.0001
     61  CD2       21.5600   38.5740  198.3640 C.3   320  LEU320      0.0001
     62  N         22.8990   36.8010  202.5500 N.am  321  SER321     -0.1952
     63  CA        22.6830   35.4290  203.0090 C.3   321  SER321      0.1924
     64  C         21.7570   35.3100  204.2070 C.2   321  SER321      0.2314
     65  O         21.0830   34.2940  204.3780 O.2   321  SER321     -0.2863
     66  CB        24.0130   34.7760  203.3680 C.3   321  SER321      0.2116
     67  OG        24.4250   35.1760  204.6590 O.3   321  SER321     -0.2180
     68  N         22.6040   34.8580  207.1610 N.3   323  TYR323     -0.1241
     69  CA        23.1420   33.8980  208.1150 C.3   323  TYR323      0.1605
     70  C         23.4230   34.5220  209.4740 C.2   323  TYR323      0.2264
     71  O         23.7270   35.7130  209.5740 O.2   323  TYR323     -0.2867
     72  CB        24.4470   33.2890  207.5880 C.3   323  TYR323      0.0534
     73  CG        24.3200   32.4340  206.3430 C.ar  323  TYR323     -0.0201
     74  CD1       25.4530   31.8410  205.7720 C.ar  323  TYR323     -0.0009
     75  CD2       23.0840   32.2080  205.7380 C.ar  323  TYR323     -0.0009
     76  CE1       25.3610   31.0450  204.6340 C.ar  323  TYR323      0.0417
     77  CE2       22.9830   31.4150  204.5960 C.ar  323  TYR323      0.0417
     78  CZ        24.1270   30.8390  204.0530 C.ar  323  TYR323      0.1957
     79  OH        24.0410   30.0720  202.9290 O.3   323  TYR323     -0.2866
     80  N         30.1630   36.0590  208.7900 N.3   327  LEU327     -0.1245
     81  CA        31.1180   35.8430  207.7100 C.3   327  LEU327      0.1561
     82  C         32.3830   36.6270  208.0190 C.2   327  LEU327      0.2260
     83  O         32.3310   37.6870  208.6470 O.2   327  LEU327     -0.2867
     84  CB        30.5150   36.2890  206.3780 C.3   327  LEU327      0.0270
     85  CG        29.3070   35.4360  205.9870 C.3   327  LEU327      0.0019
     86  CD1       28.8180   35.8530  204.6160 C.3   327  LEU327      0.0001
     87  CD2       29.6980   33.9560  205.9870 C.3   327  LEU327      0.0001
     88  N         27.8330   32.7010  185.6900 N.3   349  PHE349     -0.1241
     89  CA        27.8910   33.6540  186.7870 C.3   349  PHE349      0.1605
     90  C         27.2930   34.9880  186.3230 C.2   349  PHE349      0.2264
     91  O         26.6180   35.6740  187.0800 O.2   349  PHE349     -0.2867
     92  CB        29.3470   33.8240  187.2220 C.3   349  PHE349      0.0534
     93  CG        29.5310   34.6420  188.4740 C.ar  349  PHE349     -0.0203
     94  CD1       28.5660   34.6380  189.4830 C.ar  349  PHE349     -0.0042
     95  CD2       30.7180   35.3500  188.6820 C.ar  349  PHE349     -0.0042
     96  CE1       28.7790   35.3180  190.6840 C.ar  349  PHE349     -0.0003
     97  CE2       30.9490   36.0340  189.8810 C.ar  349  PHE349     -0.0003
     98  CZ        29.9750   36.0160  190.8860 C.ar  349  PHE349     -0.0000
     99  N         23.3560   34.3860  186.1350 N.3   352  LEU352     -0.1231
    100  CA        22.8710   34.3050  187.5050 C.3   352  LEU352      0.1693
    101  C         22.8190   35.6400  188.2340 C.2   352  LEU352      0.2592
    102  O         21.9560   35.8460  189.0880 O.2   352  LEU352     -0.2718
    103  CB        23.7490   33.3290  188.2880 C.3   352  LEU352      0.0284
    104  CG        23.5810   33.1650  189.7990 C.3   352  LEU352      0.0019
    105  CD1       24.1360   31.8010  190.1950 C.3   352  LEU352      0.0001
    106  CD2       24.2970   34.2860  190.5540 C.3   352  LEU352      0.0001
    107  N         23.7310   36.5480  187.9030 N.am  353  TYR353     -0.1976
    108  CA        23.7840   37.8420  188.5730 C.3   353  TYR353      0.1639
    109  C         22.8810   38.9350  187.9910 C.2   353  TYR353      0.2290
    110  O         22.9760   40.0960  188.3810 O.2   353  TYR353     -0.2864
    111  CB        25.2320   38.3330  188.6170 C.3   353  TYR353      0.0560
    112  CG        25.7390   38.6810  190.0070 C.ar  353  TYR353     -0.0198
    113  CD1       26.9730   38.2010  190.4550 C.ar  353  TYR353     -0.0009
    114  CD2       25.0120   39.5150  190.8560 C.ar  353  TYR353     -0.0009
    115  CE1       27.4700   38.5400  191.7070 C.ar  353  TYR353      0.0417
    116  CE2       25.5040   39.8690  192.1170 C.ar  353  TYR353      0.0417
    117  CZ        26.7350   39.3770  192.5390 C.ar  353  TYR353      0.1957
    118  OH        27.2430   39.7090  193.7910 O.3   353  TYR353     -0.2866
    119  N         20.3040   40.6280  188.5650 N.3   355  TRP355     -0.1241
    120  CA        19.3640   40.8980  189.6390 C.3   355  TRP355      0.1605
    121  C         18.4510   42.1010  189.4530 C.2   355  TRP355      0.2264
    122  O         18.2200   42.8780  190.3870 O.2   355  TRP355     -0.2867
    123  CB        20.1240   41.0410  190.9490 C.3   355  TRP355      0.0550
    124  CG        20.7800   39.7850  191.3790 C.ar  355  TRP355      0.0003
    125  CD1       20.6220   38.5460  190.8340 C.ar  355  TRP355      0.0946
    126  CD2       21.6440   39.6240  192.5110 C.ar  355  TRP355      0.0152
    127  NE1       21.3290   37.6130  191.5610 N.ar  355  TRP355     -0.2442
    128  CE2       21.9640   38.2480  192.5980 C.ar  355  TRP355      0.0810
    129  CE3       22.1750   40.5090  193.4640 C.ar  355  TRP355      0.0012
    130  CZ2       22.7910   37.7350  193.6010 C.ar  355  TRP355      0.0191
    131  CZ3       22.9980   39.9980  194.4610 C.ar  355  TRP355      0.0001
    132  CH2       23.2960   38.6210  194.5200 C.ar  355  TRP355      0.0015
    133  N         15.8750   34.9310  197.7620 N.3   486  PHE486     -0.1241
    134  CA        15.8290   34.0190  196.6220 C.3   486  PHE486      0.1605
    135  C         15.9130   32.5440  197.0070 C.2   486  PHE486      0.2264
    136  O         16.0020   32.2020  198.1870 O.2   486  PHE486     -0.2867
    137  CB        16.8900   34.3810  195.5620 C.3   486  PHE486      0.0534
    138  CG        18.2610   34.6630  196.1120 C.ar  486  PHE486     -0.0203
    139  CD1       19.0640   35.6310  195.5110 C.ar  486  PHE486     -0.0042
    140  CD2       18.7740   33.9420  197.1800 C.ar  486  PHE486     -0.0042
    141  CE1       20.3640   35.8790  195.9630 C.ar  486  PHE486     -0.0003
    142  CE2       20.0760   34.1800  197.6460 C.ar  486  PHE486     -0.0003
    143  CZ        20.8720   35.1500  197.0350 C.ar  486  PHE486     -0.0000
    144  N         20.1780   29.8290  193.6910 N.3   490  MET490     -0.1230
    145  CA        20.9280   31.0780  193.5930 C.3   490  MET490      0.1702
    146  C         22.1150   31.0630  194.5640 C.2   490  MET490      0.2592
    147  O         23.1920   31.5620  194.2410 O.2   490  MET490     -0.2718
    148  CB        20.0160   32.2690  193.9020 C.3   490  MET490      0.0401
    149  CG        20.5740   33.6140  193.4800 C.3   490  MET490      0.0596
    150  SD        20.5860   33.8530  191.6890 S.3   490  MET490     -0.1393
    151  CE        18.8980   34.1780  191.4110 C.3   490  MET490      0.0692
    152  N         21.9170   30.4900  195.7520 N.am  491  ILE491     -0.1980
    153  CA        22.9780   30.4090  196.7550 C.3   491  ILE491      0.1595
    154  C         23.9810   29.2970  196.4450 C.2   491  ILE491      0.2287
    155  O         25.1830   29.5410  196.3870 O.2   491  ILE491     -0.2864
    156  CB        22.4050   30.1720  198.1740 C.3   491  ILE491      0.0276
    157  CG1       21.6790   31.4290  198.6570 C.3   491  ILE491      0.0022
    158  CG2       23.5270   29.8200  199.1530 C.3   491  ILE491      0.0022
    159  CD1       21.1180   31.3130  200.0650 C.3   491  ILE491      0.0001
    160  N         25.5290   30.4280  193.1420 N.3   494  GLY494     -0.1210
    161  CA        26.1240   31.7480  193.2480 C.3   494  GLY494      0.1956
    162  C         27.2920   31.8740  194.2140 C.2   494  GLY494      0.2611
    163  O         28.2670   32.5720  193.9270 O.2   494  GLY494     -0.2717
    164  N         27.2010   31.2060  195.3610 N.am  495  ALA495     -0.1979
    165  CA        28.2550   31.2710  196.3750 C.3   495  ALA495      0.1597
    166  C         29.6190   30.8080  195.8630 C.2   495  ALA495      0.2287
    167  O         30.6280   31.4840  196.0770 O.2   495  ALA495     -0.2864
    168  CB        27.8490   30.4590  197.6180 C.3   495  ALA495      0.0319
    169  N         31.0800   33.5280  193.6030 N.3   498  SER498     -0.1202
    170  CA        31.4550   34.7130  194.3750 C.3   498  SER498      0.2020
    171  C         32.6640   34.5270  195.2720 C.2   498  SER498      0.2618
    172  O         33.6350   35.2770  195.1820 O.2   498  SER498     -0.2717
    173  CB        30.2800   35.1950  195.2290 C.3   498  SER498      0.2103
    174  OG        29.2080   35.6370  194.4140 O.3   498  SER498     -0.2182
    175  N         32.6110   33.5310  196.1460 N.am  499  LEU499     -0.1979
    176  CA        33.7150   33.3060  197.0630 C.3   499  LEU499      0.1596
    177  C         35.0270   33.0170  196.3380 C.2   499  LEU499      0.2287
    178  O         36.0840   33.4980  196.7610 O.2   499  LEU499     -0.2864
    179  CB        33.3560   32.1880  198.0410 C.3   499  LEU499      0.0297
    180  CG        32.0920   32.5160  198.8600 C.3   499  LEU499      0.0022
    181  CD1       31.7500   31.3430  199.7800 C.3   499  LEU499      0.0001
    182  CD2       32.3020   33.7990  199.6740 C.3   499  LEU499      0.0001
@<TRIPOS>BOND
     1    88    89    1
     2    99   100    1
     3    90    89    1
     4    90    91    2
     5    89    92    1
     6    92    93    1
     7   100   101    1
     8   100   103    1
     9   107   101   am
    10   107   108    1
    11   109   110    2
    12   109   108    1
    13   101   102    2
    14   103   104    1
    15    93    95   ar
    16    93    94   ar
    17   119   120    1
    18   108   111    1
    19   111   112    1
    20    95    97   ar
    21   121   120    1
    22   121   122    2
    23    94    96   ar
    24   120   123    1
    25   104   105    1
    26   104   106    1
    27    97    98   ar
    28   112   113   ar
    29   112   114   ar
    30   113   115   ar
    31    96    98   ar
    32   125   124   ar
    33   125   127   ar
    34   114   116   ar
    35   123   124    1
    36   124   126   ar
    37   151   150    1
    38   127   128   ar
    39   150   149    1
    40   115   117   ar
    41   116   117   ar
    42   126   128   ar
    43   126   129   ar
    44   117   118    1
    45   128   130   ar
    46   160   161    1
    47   161   162    1
    48   129   131   ar
    49   149   148    1
    50   145   144    1
    51   145   148    1
    52   145   146    1
    53   130   132   ar
    54   169   170    1
    55   163   162    2
    56   162   164   am
    57   147   146    2
    58   170   173    1
    59   170   171    1
    60   174   173    1
    61   131   132   ar
    62   146   152   am
    63    46    45    1
    64   172   171    2
    65   171   175   am
    66   164   165    1
    67   139   141   ar
    68   139   138   ar
    69   137   138    1
    70   137   134    1
    71    27    26    2
    72   152   153    1
    73   166   167    2
    74   166   165    1
    75   141   143   ar
    76   138   140   ar
    77   175   176    1
    78    45    43   ar
    79    45    44   ar
    80   177   178    2
    81   177   176    1
    82   165   168    1
    83   155   154    2
    84   154   153    1
    85   134   135    1
    86   134   133    1
    87   153   156    1
    88    26    25    1
    89    43    41   ar
    90    44    42   ar
    91   135   136    2
    92   143   142   ar
    93   176   179    1
    94   140   142   ar
    95    25    28    1
    96    25    24    1
    97   179   180    1
    98    41    40   ar
    99   156   157    1
   100   156   158    1
   101    42    40   ar
   102    61    59    1
   103    28    29    1
   104    60    59    1
   105    59    58    1
   106   157   159    1
   107    33    32    1
   108    40    39    1
   109   180   182    1
   110   180   181    1
   111    30    29    1
   112    30    31    1
   113    32    31    2
   114    32    34    1
   115    53    51    1
   116    58    55    1
   117    39    36    1
   118    55    56    1
   119    55    54    1
   120    51    52    1
   121    51    48    1
   122    57    56    2
   123    38    37    2
   124    20    19    2
   125    36    37    1
   126    36    35    1
   127    37    47   am
   128    47    48    1
   129    48    49    1
   130    56    62   am
   131    19    18    1
   132    62    63    1
   133    49    50    2
   134    79    78    1
   135    63    66    1
   136    63    64    1
   137    22    21    1
   138    66    67    1
   139    18    21    1
   140    18    17    1
   141    78    77   ar
   142    78    76   ar
   143    64    65    2
   144    21    23    1
   145    16    15    1
   146    77    75   ar
   147    86    85    1
   148    76    74   ar
   149    12    11    2
   150    75    73   ar
   151    74    73   ar
   152    87    85    1
   153    85    84    1
   154    15    14    1
   155    73    72    1
   156    84    81    1
   157    11    10    1
   158     7     6    1
   159    14    13    1
   160    68    69    1
   161    10    13    1
   162    10     9    1
   163    72    69    1
   164    81    82    1
   165    81    80    1
   166    82    83    2
   167     6     5    1
   168     6     8    1
   169    69    70    1
   170     5     2    1
   171    70    71    2
   172     2     1    1
   173     2     3    1
   174     3     4    2
