@<TRIPOS>MOLECULE
tmp/1eqmA00.pdb
 151 145 0 0 0
SMALL
GASTEIGER

@<TRIPOS>ATOM
      1  N         28.2100    1.5530    4.4180 N.3    70  LEU70      -0.1245
      2  CA        27.0930    2.2040    3.7570 C.3    70  LEU70       0.1561
      3  C         26.9720    1.9000    2.2760 C.2    70  LEU70       0.2260
      4  O         25.8970    1.7720    1.6640 O.2    70  LEU70      -0.2867
      5  CB        27.3120    3.7300    3.9270 C.3    70  LEU70       0.0270
      6  CG        26.1930    4.5650    3.3140 C.3    70  LEU70       0.0019
      7  CD1       24.8860    4.3920    4.0920 C.3    70  LEU70       0.0001
      8  CD2       26.5980    6.0340    3.2720 C.3    70  LEU70       0.0001
      9  N         25.2090   -1.3810    2.3130 N.3    73  THR73      -0.1203
     10  CA        23.7700   -1.3370    2.6130 C.3    73  THR73       0.1994
     11  C         23.0050   -0.6650    1.4850 C.2    73  THR73       0.2617
     12  O         21.9040   -1.0880    1.1430 O.2    73  THR73      -0.2717
     13  CB        23.4770   -0.6320    3.9420 C.3    73  THR73       0.1784
     14  OG1       24.0310    0.6990    3.9550 O.3    73  THR73      -0.2211
     15  CG2       24.1400   -1.4070    5.0700 C.3    73  THR73       0.0376
     16  N         23.5590    0.4070    0.8860 N.am   74  GLN74      -0.1979
     17  CA        22.8780    1.0100   -0.2530 C.3    74  GLN74       0.1601
     18  C         22.8320    0.0490   -1.4450 C.2    74  GLN74       0.2287
     19  O         21.8150    0.0240   -2.1560 O.2    74  GLN74      -0.2864
     20  CB        23.5330    2.3390   -0.6680 C.3    74  GLN74       0.0394
     21  CG        23.4220    3.3740    0.4440 C.3    74  GLN74       0.0908
     22  CD        24.0380    4.7120    0.0710 C.2    74  GLN74       0.2608
     23  OE1       24.9210    4.8140   -0.7680 O.2    74  GLN74      -0.2717
     24  NE2       23.5410    5.7490    0.7320 N.am   74  GLN74      -0.0878
     25  N         19.9660   -2.2180   -0.7640 N.3    77  GLU77      -0.1245
     26  CA        18.7250   -1.5230   -1.1180 C.3    77  GLU77       0.1567
     27  C         18.4010   -1.5140   -2.6080 C.2    77  GLU77       0.2260
     28  O         17.2430   -1.6510   -3.0610 O.2    77  GLU77      -0.2867
     29  CB        18.8270   -0.0550   -0.6170 C.3    77  GLU77       0.0388
     30  CG        18.5850    0.0420    0.8930 C.3    77  GLU77       0.1160
     31  CD        18.7110    1.4720    1.3820 C.2    77  GLU77       0.3649
     32  OE1       19.1800    2.3310    0.6060 O.co2  77  GLU77      -0.2457
     33  OE2       18.3420    1.7280    2.5350 O.co2  77  GLU77      -0.2457
     34  N         11.3240    1.3700   -4.1750 N.3    92  ARG92      -0.1245
     35  CA        12.0160    0.8060   -3.0190 C.3    92  ARG92       0.1563
     36  C         11.1140    0.7550   -1.7780 C.2    92  ARG92       0.2260
     37  O         10.5530    1.7670   -1.3700 O.2    92  ARG92      -0.2867
     38  CB        13.2610    1.5950   -2.5980 C.3    92  ARG92       0.0307
     39  CG        14.2180    0.7830   -1.7320 C.3    92  ARG92       0.0489
     40  CD        15.4730    1.5800   -1.3840 C.3    92  ARG92       0.2205
     41  NE        15.2160    2.3790   -0.1930 N.pl3  92  ARG92      -0.0865
     42  CZ        15.6960    3.5760    0.0740 C.cat  92  ARG92       0.5346
     43  NH1       16.5060    4.1790   -0.7800 N.pl3  92  ARG92       0.1354
     44  NH2       15.3530    4.1630    1.2080 N.pl3  92  ARG92       0.1354
     45  N         14.4370   -0.2140    3.5990 N.3    95  ASP95      -0.1225
     46  CA        15.3000    0.7990    4.1750 C.3    95  ASP95       0.1805
     47  C         16.3080    0.2280    5.1570 C.2    95  ASP95       0.2598
     48  O         15.9230   -0.3820    6.1510 O.2    95  ASP95      -0.2718
     49  CB        14.4870    1.8520    4.9510 C.3    95  ASP95       0.1424
     50  CG        13.4230    2.4210    4.0400 C.2    95  ASP95       0.3668
     51  OD1       13.8150    2.7700    2.9070 O.co2  95  ASP95      -0.2456
     52  OD2       12.2560    2.4750    4.4690 O.co2  95  ASP95      -0.2456
     53  N         17.5830    0.4110    4.8820 N.am   96  LEU96      -0.1966
     54  CA        18.6660   -0.0200    5.7500 C.3    96  LEU96       0.1728
     55  C         19.3720    1.2110    6.2970 C.2    96  LEU96       0.2616
     56  O         19.8670    1.9920    5.4980 O.2    96  LEU96      -0.2715
     57  CB        19.6460   -0.9150    4.9900 C.3    96  LEU96       0.0311
     58  CG        19.0260   -2.1870    4.4020 C.3    96  LEU96       0.0022
     59  CD1       20.0210   -2.9130    3.4980 C.3    96  LEU96       0.0001
     60  CD2       18.5540   -3.1090    5.5180 C.3    96  LEU96       0.0001
     61  N         19.3940    1.3670    7.6090 N.am   97  ASP97      -0.1957
     62  CA        20.0350    2.5300    8.2170 C.3    97  ASP97       0.1840
     63  C         21.1250    2.1170    9.1900 C.2    97  ASP97       0.2621
     64  O         20.9190    1.1950    9.9910 O.2    97  ASP97      -0.2715
     65  CB        19.0230    3.3880    8.9810 C.3    97  ASP97       0.1450
     66  CG        18.1900    4.2030    8.0070 C.2    97  ASP97       0.3671
     67  OD1       18.7140    5.2160    7.5180 O.co2  97  ASP97      -0.2456
     68  OD2       17.0390    3.8100    7.7630 O.co2  97  ASP97      -0.2456
     69  N         22.2630    2.7930    9.1460 N.am   98  ILE98      -0.1977
     70  CA        23.2840    2.4900   10.1530 C.3    98  ILE98       0.1596
     71  C         22.9160    3.2890   11.4030 C.2    98  ILE98       0.2287
     72  O         22.9210    4.5230   11.3650 O.2    98  ILE98      -0.2864
     73  CB        24.6860    2.8050    9.6330 C.3    98  ILE98       0.0276
     74  CG1       25.0520    1.9700    8.3930 C.3    98  ILE98       0.0022
     75  CG2       25.7350    2.6660   10.7300 C.3    98  ILE98       0.0022
     76  CD1       26.3050    2.4170    7.6680 C.3    98  ILE98       0.0001
     77  N         28.8270   14.2340    4.4700 N.3   109  GLU109     -0.1231
     78  CA        27.7240   14.4550    3.5610 C.3   109  GLU109      0.1699
     79  C         26.8870   13.1910    3.3950 C.2   109  GLU109      0.2592
     80  O         25.6970   13.2850    3.0950 O.2   109  GLU109     -0.2718
     81  CB        28.2540   14.8860    2.1900 C.3   109  GLU109      0.0402
     82  CG        29.0770   16.1630    2.2000 C.3   109  GLU109      0.1161
     83  CD        30.5510   15.8870    2.3430 C.2   109  GLU109      0.3649
     84  OE1       30.9720   14.9990    3.1160 O.co2 109  GLU109     -0.2457
     85  OE2       31.3060   16.5900    1.6420 O.co2 109  GLU109     -0.2457
     86  N         27.5310   12.0400    3.5720 N.am  110  ARG110     -0.1966
     87  CA        26.8390   10.7690    3.3200 C.3   110  ARG110      0.1729
     88  C         26.2970   10.1170    4.5860 C.2   110  ARG110      0.2616
     89  O         25.2670    9.4530    4.5080 O.2   110  ARG110     -0.2715
     90  CB        27.7830    9.7640    2.6400 C.3   110  ARG110      0.0348
     91  CG        28.0770   10.1020    1.1870 C.3   110  ARG110      0.0492
     92  CD        28.8690    8.9760    0.5410 C.3   110  ARG110      0.2205
     93  NE        28.0550    7.7850    0.3610 N.pl3 110  ARG110     -0.0865
     94  CZ        28.5240    6.5560    0.2410 C.cat 110  ARG110      0.5346
     95  NH1       29.8250    6.3330    0.2930 N.pl3 110  ARG110      0.1354
     96  NH2       27.6830    5.5370    0.0750 N.pl3 110  ARG110      0.1354
     97  N         27.0130   10.3130    5.6890 N.am  111  LEU111     -0.1963
     98  CA        26.7360    9.5980    6.9310 C.3   111  LEU111      0.1728
     99  C         26.5630   10.4890    8.1480 C.2   111  LEU111      0.2617
    100  O         27.3940   11.3330    8.4870 O.2   111  LEU111     -0.2715
    101  CB        27.9070    8.6500    7.1840 C.3   111  LEU111      0.0311
    102  CG        27.6770    7.2700    7.7760 C.3   111  LEU111      0.0022
    103  CD1       26.3230    6.7040    7.3640 C.3   111  LEU111      0.0001
    104  CD2       28.8000    6.3260    7.3670 C.3   111  LEU111      0.0001
    105  N         25.4530   10.2620    8.8460 N.am  112  THR112     -0.1937
    106  CA        25.2110   10.8200   10.1690 C.3   112  THR112      0.2028
    107  C         25.0200    9.6260   11.1200 C.2   112  THR112      0.2642
    108  O         24.0180    8.9430   10.9710 O.2   112  THR112     -0.2714
    109  CB        23.9810   11.7270   10.2010 C.3   112  THR112      0.1808
    110  OG1       24.2770   12.9170    9.4410 O.3   112  THR112     -0.2208
    111  CG2       23.6490   12.1650   11.6150 C.3   112  THR112      0.0379
    112  N         26.0010    9.4460   11.9770 N.am  113  VAL113     -0.1977
    113  CA        25.9860    8.4000   12.9880 C.3   113  VAL113      0.1596
    114  C         26.2340    8.9890   14.3700 C.2   113  VAL113      0.2287
    115  O         27.2240    9.7150   14.5290 O.2   113  VAL113     -0.2864
    116  CB        26.9970    7.2720   12.7230 C.3   113  VAL113      0.0276
    117  CG1       26.8680    6.2250   13.8340 C.3   113  VAL113      0.0022
    118  CG2       26.7360    6.6910   11.3500 C.3   113  VAL113      0.0022
    119  N         22.2840    7.6330   14.0020 N.3   115  HIS115     -0.1226
    120  CA        21.2000    7.9530   13.0790 C.3   115  HIS115      0.1752
    121  C         20.4680    9.2110   13.5420 C.2   115  HIS115      0.2596
    122  O         20.1830    9.3710   14.7280 O.2   115  HIS115     -0.2718
    123  CB        20.2730    6.7530   12.9430 C.3   115  HIS115      0.0759
    124  CG        19.0880    7.0140   12.0750 C.ar  115  HIS115      0.0818
    125  ND1       17.9940    7.6810   12.5700 N.ar  115  HIS115     -0.2268
    126  CD2       18.8180    6.7520   10.7790 C.ar  115  HIS115      0.1154
    127  CE1       17.0800    7.7950   11.6100 C.ar  115  HIS115      0.1986
    128  NE2       17.5620    7.2380   10.5090 N.ar  115  HIS115     -0.2212
    129  N         20.2280   10.1060   12.5820 N.am  116  TYR116     -0.1976
    130  CA        19.8140   11.4610   12.9220 C.3   116  TYR116      0.1639
    131  C         18.5220   11.6090   13.7100 C.2   116  TYR116      0.2290
    132  O         18.3180   12.6400   14.3640 O.2   116  TYR116     -0.2864
    133  CB        19.6810   12.2670   11.6210 C.3   116  TYR116      0.0560
    134  CG        18.3760   12.1330   10.8840 C.ar  116  TYR116     -0.0198
    135  CD1       18.0940   11.0000   10.1290 C.ar  116  TYR116     -0.0009
    136  CD2       17.4160   13.1390   10.9260 C.ar  116  TYR116     -0.0009
    137  CE1       16.9040   10.8660    9.4500 C.ar  116  TYR116      0.0417
    138  CE2       16.2120   13.0210   10.2490 C.ar  116  TYR116      0.0417
    139  CZ        15.9730   11.8790    9.5130 C.ar  116  TYR116      0.1957
    140  OH        14.7950   11.7120    8.8270 O.3   116  TYR116     -0.2866
    141  N         12.1670    7.7000   17.6120 N.3   121  ARG121     -0.1245
    142  CA        11.4600    6.6190   16.9390 C.3   121  ARG121      0.1563
    143  C         11.3860    5.3410   17.7620 C.2   121  ARG121      0.2260
    144  O         12.3820    4.6230   17.8730 O.2   121  ARG121     -0.2867
    145  CB        12.1510    6.3640   15.5870 C.3   121  ARG121      0.0307
    146  CG        12.0100    7.5850   14.6770 C.3   121  ARG121      0.0489
    147  CD        13.0260    7.4760   13.5390 C.3   121  ARG121      0.2205
    148  NE        12.8730    8.6090   12.6400 N.pl3 121  ARG121     -0.0865
    149  CZ        13.0850    8.5970   11.3330 C.cat 121  ARG121      0.5346
    150  NH1       13.4760    7.4860   10.7320 N.pl3 121  ARG121      0.1354
    151  NH2       12.9050    9.7160   10.6480 N.pl3 121  ARG121      0.1354
@<TRIPOS>BOND
     1    34    35    1
     2    28    27    2
     3    35    38    1
     4    35    36    1
     5    27    26    1
     6    38    39    1
     7    19    18    2
     8    36    37    2
     9    39    40    1
    10    18    17    1
    11    40    41    1
    12    26    25    1
    13    26    29    1
    14    43    42    1
    15    23    22    2
    16    20    17    1
    17    20    21    1
    18    29    30    1
    19    17    16    1
    20    41    42    2
    21    22    21    1
    22    22    24   am
    23    42    44    1
    24    96    94    1
    25    94    95    1
    26    94    93    2
    27    93    92    1
    28    92    91    1
    29    32    31   ar
    30    16    11   am
    31    30    31    1
    32    12    11    2
    33    91    90    1
    34    31    33   ar
    35    11    10    1
    36    85    83   ar
    37     4     3    2
    38    81    82    1
    39    81    78    1
    40    82    83    1
    41     3     2    1
    42     9    10    1
    43    83    84   ar
    44    10    13    1
    45    90    87    1
    46    51    50   ar
    47    80    79    2
    48     8     6    1
    49     6     5    1
    50     6     7    1
    51    87    86    1
    52    87    88    1
    53    79    78    1
    54    79    86   am
    55    59    58    1
    56    78    77    1
    57    45    46    1
    58     2     5    1
    59     2     1    1
    60    13    14    1
    61    13    15    1
    62    50    52   ar
    63    50    49    1
    64    46    49    1
    65    46    47    1
    66    58    57    1
    67    58    60    1
    68    89    88    2
    69    88    97   am
    70    53    47   am
    71    53    54    1
    72    57    54    1
    73    47    48    2
    74    56    55    2
    75    97    98    1
    76    54    55    1
    77    55    61   am
    78    98   101    1
    79    98    99    1
    80   101   102    1
    81   103   102    1
    82   104   102    1
    83    67    66   ar
    84    61    62    1
    85    76    74    1
    86    68    66   ar
    87    66    65    1
    88    99   100    2
    89    99   105   am
    90    62    65    1
    91    62    63    1
    92    74    73    1
    93   140   139    1
    94   105   106    1
    95    69    63   am
    96    69    70    1
    97    63    64    2
    98   110   109    1
    99   137   139   ar
   100   137   135   ar
   101   139   138   ar
   102    73    70    1
   103    73    75    1
   104   135   134   ar
   105    70    71    1
   106   106   109    1
   107   106   107    1
   108   109   111    1
   109   138   136   ar
   110   128   126   ar
   111   128   127   ar
   112   151   149    1
   113   150   149    1
   114   126   124   ar
   115   134   136   ar
   116   134   133    1
   117   108   107    2
   118   107   112   am
   119   149   148    2
   120   118   116    1
   121    72    71    2
   122   127   125   ar
   123   133   130    1
   124   112   113    1
   125   124   125   ar
   126   124   123    1
   127   129   130    1
   128   129   121   am
   129   148   147    1
   130   116   113    1
   131   116   117    1
   132   130   131    1
   133   123   120    1
   134   113   114    1
   135   120   121    1
   136   120   119    1
   137   147   146    1
   138   121   122    2
   139   131   132    2
   140   114   115    2
   141   146   145    1
   142   145   142    1
   143   142   141    1
   144   142   143    1
   145   143   144    2
