@<TRIPOS>MOLECULE
tmp/1eqqD00.pdb
 69 65 0 0 0
SMALL
GASTEIGER

@<TRIPOS>ATOM
      1  N         16.4330   17.4570    4.8260 N.3    23  MET23      -0.1245
      2  CA        16.1060   18.7470    5.4190 C.3    23  MET23       0.1570
      3  C         17.3730   19.4430    5.8970 C.2    23  MET23       0.2261
      4  O         18.1220   18.8910    6.6950 O.2    23  MET23      -0.2867
      5  CB        15.1280   18.5790    6.5900 C.3    23  MET23       0.0387
      6  CG        15.5880   17.6340    7.6830 C.3    23  MET23       0.0595
      7  SD        14.9320   15.9790    7.4540 S.3    23  MET23      -0.1393
      8  CE        13.6820   15.8950    8.7270 C.3    23  MET23       0.0692
      9  N         18.5010   18.6240    2.2060 N.3    26  GLY26      -0.1210
     10  CA        19.8770   18.1820    2.0790 C.3    26  GLY26       0.1956
     11  C         20.4020   17.6850    3.4160 C.2    26  GLY26       0.2612
     12  O         21.4790   17.0840    3.4930 O.2    26  GLY26      -0.2717
     13  N         19.6500   17.9470    4.4810 N.am   27  GLY27      -0.1942
     14  CA        20.0640   17.4850    5.7900 C.3    27  GLY27       0.2014
     15  C         19.6750   16.0280    5.8750 C.2    27  GLY27       0.2639
     16  O         19.3370   15.5050    6.9380 O.2    27  GLY27      -0.2714
     17  N         19.7160   15.3830    4.7160 N.am   28  ALA28      -0.1963
     18  CA        19.3920   13.9770    4.5610 C.3    28  ALA28       0.1728
     19  C         19.4160   13.1800    5.8550 C.2    28  ALA28       0.2616
     20  O         20.3470   13.2700    6.6480 O.2    28  ALA28      -0.2715
     21  CB        20.3410   13.3430    3.5470 C.3    28  ALA28       0.0334
     22  N         18.3690   12.4030    6.0640 N.am   29  VAL29      -0.1977
     23  CA        18.2890   11.5710    7.2310 C.3    29  VAL29       0.1596
     24  C         17.6760   10.2360    6.8650 C.2    29  VAL29       0.2287
     25  O         16.4800   10.1390    6.6270 O.2    29  VAL29      -0.2864
     26  CB        17.4500   12.2270    8.3170 C.3    29  VAL29       0.0276
     27  CG1       17.4470   11.3510    9.5590 C.3    29  VAL29       0.0022
     28  CG2       18.0080   13.5960    8.6360 C.3    29  VAL29       0.0022
     29  N         22.9820   10.0040    8.9160 N.3    60  PHE60      -0.1227
     30  CA        22.9370   11.4390    8.6240 C.3    60  PHE60       0.1736
     31  C         23.9510   11.7720    7.5570 C.2    60  PHE60       0.2596
     32  O         24.7800   10.9370    7.1860 O.2    60  PHE60      -0.2718
     33  CB        23.2650   12.2740    9.8590 C.3    60  PHE60       0.0547
     34  CG        22.2400   12.1940   10.9340 C.ar   60  PHE60      -0.0202
     35  CD1       20.9400   12.5760   10.6800 C.ar   60  PHE60      -0.0042
     36  CD2       22.5820   11.7610   12.2110 C.ar   60  PHE60      -0.0042
     37  CE1       19.9860   12.5360   11.6800 C.ar   60  PHE60      -0.0003
     38  CE2       21.6380   11.7160   13.2190 C.ar   60  PHE60      -0.0003
     39  CZ        20.3340   12.1060   12.9540 C.ar   60  PHE60      -0.0000
     40  N         23.8920   13.0050    7.0800 N.am   61  GLY61      -0.1957
     41  CA        24.8230   13.4360    6.0580 C.3    61  GLY61       0.1869
     42  C         25.1000   12.3920    4.9930 C.2    61  GLY61       0.2309
     43  O         24.2090   11.6400    4.5990 O.2    61  GLY61      -0.2863
     44  N         20.7780    6.5210   21.4910 N.3    84  ARG84      -0.1245
     45  CA        20.1390    7.7950   21.7060 C.3    84  ARG84       0.1563
     46  C         18.6540    7.5900   21.8670 C.2    84  ARG84       0.2260
     47  O         17.9070    7.5310   20.8850 O.2    84  ARG84      -0.2867
     48  CB        20.4030    8.7410   20.5380 C.3    84  ARG84       0.0307
     49  CG        19.7580   10.1080   20.7030 C.3    84  ARG84       0.0489
     50  CD        18.6290   10.3060   19.7250 C.3    84  ARG84       0.2205
     51  NE        19.0390   11.0410   18.5330 N.pl3  84  ARG84      -0.0865
     52  CZ        18.2540   11.2210   17.4710 C.cat  84  ARG84       0.5346
     53  NH1       17.0220   10.7200   17.4550 N.pl3  84  ARG84       0.1354
     54  NH2       18.6950   11.9020   16.4240 N.pl3  84  ARG84       0.1354
     55  N         26.3020    9.4090   13.9800 N.3   103  VAL103     -0.1231
     56  CA        26.6970   10.7720   13.6930 C.3   103  VAL103      0.1692
     57  C         28.2090   10.9780   13.8290 C.2   103  VAL103      0.2592
     58  O         28.7450   11.0980   14.9310 O.2   103  VAL103     -0.2718
     59  CB        25.9100   11.7900   14.5840 C.3   103  VAL103      0.0266
     60  CG1       26.2560   11.6040   16.0520 C.3   103  VAL103      0.0020
     61  CG2       26.1930   13.2160   14.1220 C.3   103  VAL103      0.0020
     62  N         28.8850   10.9890   12.6820 N.am  104  ASN104     -0.1974
     63  CA        30.3320   11.2100   12.5990 C.3   104  ASN104      0.1688
     64  C         31.1740   10.1680   13.3470 C.2   104  ASN104      0.2292
     65  O         31.9020    9.3760   12.7340 O.2   104  ASN104     -0.2864
     66  CB        30.6910   12.6170   13.1190 C.3   104  ASN104      0.1181
     67  CG        29.7970   13.7090   12.5430 C.2   104  ASN104      0.2629
     68  OD1       28.9190   14.2380   13.2290 O.2   104  ASN104     -0.2716
     69  ND2       30.0120   14.0420   11.2740 N.am  104  ASN104     -0.0877
@<TRIPOS>BOND
     1    10     9    1
     2    10    11    1
     3    11    12    2
     4    11    13   am
     5    21    18    1
     6    13    14    1
     7    18    17    1
     8    18    19    1
     9    43    42    2
    10    17    15   am
    11     1     2    1
    12    42    41    1
    13     2     3    1
    14     2     5    1
    15    14    15    1
    16    19    22   am
    17    19    20    2
    18    15    16    2
    19     3     4    2
    20    41    40    1
    21    22    23    1
    22     5     6    1
    23    25    24    2
    24    24    23    1
    25    40    31   am
    26    32    31    2
    27    23    26    1
    28     7     6    1
    29     7     8    1
    30    31    30    1
    31    26    28    1
    32    26    27    1
    33    30    29    1
    34    30    33    1
    35    33    34    1
    36    35    34   ar
    37    35    37   ar
    38    34    36   ar
    39    69    67   am
    40    37    39   ar
    41    36    38   ar
    42    67    66    1
    43    67    68    2
    44    63    62    1
    45    63    66    1
    46    63    64    1
    47    62    57   am
    48    65    64    2
    49    39    38   ar
    50    56    57    1
    51    56    55    1
    52    56    59    1
    53    57    58    2
    54    61    59    1
    55    59    60    1
    56    54    52    1
    57    53    52    1
    58    52    51    2
    59    51    50    1
    60    50    49    1
    61    48    49    1
    62    48    45    1
    63    47    46    2
    64    44    45    1
    65    45    46    1
