@<TRIPOS>MOLECULE
tmp/1erbA00.pdb
 245 235 0 0 0
SMALL
GASTEIGER

@<TRIPOS>ATOM
      1  N         32.6860   20.1880   59.2300 N.3    34  LEU34      -0.1231
      2  CA        33.7020   20.4760   58.2560 C.3    34  LEU34       0.1693
      3  C         33.1240   20.9020   56.9850 C.2    34  LEU34       0.2592
      4  O         32.0910   20.3610   56.5930 O.2    34  LEU34      -0.2718
      5  CB        34.5810   19.1910   58.0680 C.3    34  LEU34       0.0284
      6  CG        34.4560   18.1800   59.1830 C.3    34  LEU34       0.0019
      7  CD1       34.5940   16.7820   58.5530 C.3    34  LEU34       0.0001
      8  CD2       35.4870   18.5400   60.2410 C.3    34  LEU34       0.0001
      9  N         33.8120   21.8280   56.3300 N.am   35  PHE35      -0.1962
     10  CA        33.2320   22.1970   55.0850 C.3    35  PHE35       0.1771
     11  C         34.3540   22.8380   54.3030 C.2    35  PHE35       0.2619
     12  O         35.4360   22.9550   54.8500 O.2    35  PHE35      -0.2715
     13  CB        31.9880   23.1190   55.1780 C.3    35  PHE35       0.0574
     14  CG        31.0900   23.1420   53.9610 C.ar   35  PHE35      -0.0200
     15  CD1       30.5950   21.9500   53.4370 C.ar   35  PHE35      -0.0042
     16  CD2       30.7490   24.3240   53.3020 C.ar   35  PHE35      -0.0042
     17  CE1       29.7880   21.9090   52.2960 C.ar   35  PHE35      -0.0003
     18  CE2       29.9450   24.3280   52.1560 C.ar   35  PHE35      -0.0003
     19  CZ        29.4710   23.1120   51.6640 C.ar   35  PHE35      -0.0000
     20  N         34.0450   23.2370   53.1120 N.am   36  LEU36      -0.1977
     21  CA        35.0070   23.8870   52.3180 C.3    36  LEU36       0.1596
     22  C         35.1140   25.2990   52.8710 C.2    36  LEU36       0.2287
     23  O         34.1090   25.8730   53.2630 O.2    36  LEU36      -0.2864
     24  CB        34.4410   23.8270   50.8900 C.3    36  LEU36       0.0297
     25  CG        35.2160   22.9570   49.9100 C.3    36  LEU36       0.0022
     26  CD1       34.4350   22.9300   48.5950 C.3    36  LEU36       0.0001
     27  CD2       36.5520   23.6480   49.6730 C.3    36  LEU36       0.0001
     28  N         36.6730   28.6130   46.5370 N.3    40  ILE40      -0.1245
     29  CA        35.9450   27.5270   45.9150 C.3    40  ILE40       0.1561
     30  C         35.5600   27.8350   44.4800 C.2    40  ILE40       0.2260
     31  O         34.9220   28.8440   44.1930 O.2    40  ILE40      -0.2867
     32  CB        34.7040   27.2270   46.7450 C.3    40  ILE40       0.0252
     33  CG1       35.1260   26.8430   48.1610 C.3    40  ILE40       0.0019
     34  CG2       33.8470   26.1350   46.1210 C.3    40  ILE40       0.0019
     35  CD1       34.2370   27.4370   49.2530 C.3    40  ILE40       0.0001
     36  N         34.0960   25.5770   41.0510 N.3    42  ALA42      -0.1245
     37  CA        33.5180   24.3440   40.5680 C.3    42  ALA42       0.1562
     38  C         33.4210   24.3320   39.0530 C.2    42  ALA42       0.2260
     39  O         33.0930   25.3500   38.4560 O.2    42  ALA42      -0.2867
     40  CB        32.1080   24.1710   41.1070 C.3    42  ALA42       0.0290
     41  N         31.4810   22.1780   36.1110 N.3    44  PHE44      -0.1241
     42  CA        30.4430   21.1940   35.8240 C.3    44  PHE44       0.1605
     43  C         30.5480   20.6330   34.4020 C.2    44  PHE44       0.2264
     44  O         30.8600   21.3530   33.4640 O.2    44  PHE44      -0.2867
     45  CB        29.0290   21.7460   36.0240 C.3    44  PHE44       0.0534
     46  CG        28.6000   21.8820   37.4720 C.ar   44  PHE44      -0.0203
     47  CD1       29.1120   22.8890   38.2850 C.ar   44  PHE44      -0.0042
     48  CD2       27.6760   20.9970   38.0120 C.ar   44  PHE44      -0.0042
     49  CE1       28.7190   23.0070   39.6310 C.ar   44  PHE44      -0.0003
     50  CE2       27.2640   21.1020   39.3490 C.ar   44  PHE44      -0.0003
     51  CZ        27.7950   22.1120   40.1500 C.ar   44  PHE44      -0.0000
     52  N         30.9240   16.8240   38.3070 N.3    54  ALA54      -0.1245
     53  CA        31.6330   18.0600   38.5650 C.3    54  ALA54       0.1562
     54  C         32.8910   17.8070   39.3510 C.2    54  ALA54       0.2260
     55  O         33.0830   16.7540   39.9760 O.2    54  ALA54      -0.2867
     56  CB        30.8010   19.0150   39.4070 C.3    54  ALA54       0.0290
     57  N         35.4840   20.0000   42.0240 N.3    56  ALA56      -0.1245
     58  CA        35.5770   21.2350   42.7650 C.3    56  ALA56       0.1562
     59  C         36.9430   21.3600   43.4060 C.2    56  ALA56       0.2260
     60  O         37.6100   20.3790   43.7230 O.2    56  ALA56      -0.2867
     61  CB        34.4240   21.4990   43.7100 C.3    56  ALA56       0.0290
     62  N         40.4470   23.7560   52.5200 N.3    60  VAL60      -0.1231
     63  CA        39.7800   23.1770   53.6730 C.3    60  VAL60       0.1692
     64  C         40.6730   23.3140   54.8930 C.2    60  VAL60       0.2592
     65  O         41.8910   23.0970   54.8280 O.2    60  VAL60      -0.2718
     66  CB        39.2340   21.7700   53.4860 C.3    60  VAL60       0.0266
     67  CG1       37.8840   21.6770   54.1920 C.3    60  VAL60       0.0020
     68  CG2       39.0390   21.5210   51.9960 C.3    60  VAL60       0.0020
     69  N         40.0800   23.6980   56.0200 N.am   61  ARG61      -0.1966
     70  CA        40.8900   23.8270   57.2140 C.3    61  ARG61       0.1729
     71  C         40.7830   22.5070   57.9440 C.2    61  ARG61       0.2616
     72  O         39.7310   22.1280   58.4590 O.2    61  ARG61      -0.2715
     73  CB        40.5970   25.0200   58.1200 C.3    61  ARG61       0.0348
     74  CG        41.6340   26.1370   58.0120 C.3    61  ARG61       0.0492
     75  CD        42.9140   25.9010   58.8110 C.3    61  ARG61       0.2205
     76  NE        43.9490   26.9320   58.6520 N.pl3  61  ARG61      -0.0865
     77  CZ        43.9610   28.1430   59.2260 C.cat  61  ARG61       0.5346
     78  NH1       42.9630   28.5160   60.0250 N.pl3  61  ARG61       0.1354
     79  NH2       44.9510   29.0090   59.0130 N.pl3  61  ARG61       0.1354
     80  N         41.8860   21.7830   57.9600 N.am   62  LEU62      -0.1963
     81  CA        41.8410   20.5120   58.6290 C.3    62  LEU62       0.1728
     82  C         41.6280   20.7370   60.1100 C.2    62  LEU62       0.2616
     83  O         42.0360   21.7590   60.6580 O.2    62  LEU62      -0.2715
     84  CB        43.0700   19.6480   58.3350 C.3    62  LEU62       0.0311
     85  CG        42.7090   18.4300   57.4980 C.3    62  LEU62       0.0022
     86  CD1       41.5700   18.7960   56.5510 C.3    62  LEU62       0.0001
     87  CD2       43.9230   18.0000   56.6850 C.3    62  LEU62       0.0001
     88  N         40.9710   19.7800   60.7440 N.am   63  LEU63      -0.1977
     89  CA        40.7160   19.9060   62.1580 C.3    63  LEU63       0.1596
     90  C         42.0120   20.1170   62.9270 C.2    63  LEU63       0.2287
     91  O         42.0120   20.6330   64.0430 O.2    63  LEU63      -0.2864
     92  CB        39.9170   18.7030   62.6930 C.3    63  LEU63       0.0297
     93  CG        39.1330   19.0160   63.9640 C.3    63  LEU63       0.0022
     94  CD1       40.0100   18.7470   65.1820 C.3    63  LEU63       0.0001
     95  CD2       38.6610   20.4690   63.9540 C.3    63  LEU63       0.0001
     96  N         37.9050   17.9160   44.7550 N.3    72  MET72      -0.1230
     97  CA        36.7410   17.0590   44.9050 C.3    72  MET72       0.1702
     98  C         36.0530   16.6980   43.5980 C.2    72  MET72       0.2592
     99  O         36.0670   17.4370   42.6110 O.2    72  MET72      -0.2718
    100  CB        35.6830   17.6810   45.8400 C.3    72  MET72       0.0401
    101  CG        36.2280   18.2840   47.1160 C.3    72  MET72       0.0596
    102  SD        36.6360   17.0380   48.3650 S.3    72  MET72      -0.1393
    103  CE        35.0220   16.2800   48.7070 C.3    72  MET72       0.0692
    104  N         35.4210   15.5310   43.6340 N.am   73  VAL73      -0.1966
    105  CA        34.6890   15.0020   42.5070 C.3    73  VAL73       0.1727
    106  C         33.2830   14.6290   42.9140 C.2    73  VAL73       0.2616
    107  O         33.0440   14.0400   43.9690 O.2    73  VAL73      -0.2715
    108  CB        35.3520   13.7580   41.9460 C.3    73  VAL73       0.0290
    109  CG1       34.6590   13.3850   40.6390 C.3    73  VAL73       0.0023
    110  CG2       36.8390   14.0260   41.7630 C.3    73  VAL73       0.0023
    111  N         32.3390   14.9680   42.0560 N.am   74  GLY74      -0.1955
    112  CA        30.9540   14.6550   42.3510 C.3    74  GLY74       0.1869
    113  C         30.2520   14.1720   41.1030 C.2    74  GLY74       0.2309
    114  O         30.4930   14.7050   40.0270 O.2    74  GLY74      -0.2863
    115  N         26.3480   13.1950   39.5710 N.3    76  PHE76      -0.1241
    116  CA        24.9400   13.4450   39.8530 C.3    76  PHE76       0.1605
    117  C         23.9740   12.4680   39.2040 C.2    76  PHE76       0.2264
    118  O         24.1420   12.0950   38.0510 O.2    76  PHE76      -0.2867
    119  CB        24.5510   14.8570   39.3850 C.3    76  PHE76       0.0534
    120  CG        25.4140   15.9280   39.9990 C.ar   76  PHE76      -0.0203
    121  CD1       26.7150   16.1570   39.5510 C.ar   76  PHE76      -0.0042
    122  CD2       24.9230   16.7120   41.0470 C.ar   76  PHE76      -0.0042
    123  CE1       27.5110   17.1430   40.1360 C.ar   76  PHE76      -0.0003
    124  CE2       25.7000   17.7040   41.6390 C.ar   76  PHE76      -0.0003
    125  CZ        27.0010   17.9220   41.1780 C.ar   76  PHE76      -0.0000
    126  N         23.7960   13.7410   44.7840 N.3    87  MET87      -0.1245
    127  CA        25.2070   13.8470   44.4380 C.3    87  MET87       0.1570
    128  C         26.1450   13.0170   45.2860 C.2    87  MET87       0.2261
    129  O         26.2050   13.1600   46.5020 O.2    87  MET87      -0.2867
    130  CB        25.6850   15.3190   44.4190 C.3    87  MET87       0.0387
    131  CG        27.1940   15.5140   44.3490 C.3    87  MET87       0.0595
    132  SD        27.6810   17.2450   44.6250 S.3    87  MET87      -0.1393
    133  CE        27.9680   17.2580   46.4100 C.3    87  MET87       0.0692
    134  N         29.8930   12.2340   46.2590 N.3    89  TYR89      -0.1241
    135  CA        31.1570   12.9360   46.1490 C.3    89  TYR89       0.1605
    136  C         32.2710   12.3170   46.9770 C.2    89  TYR89       0.2264
    137  O         32.0260   11.6530   47.9750 O.2    89  TYR89      -0.2867
    138  CB        30.9670   14.4120   46.5080 C.3    89  TYR89       0.0534
    139  CG        30.5990   14.5140   47.9630 C.ar   89  TYR89      -0.0201
    140  CD1       29.2770   14.3530   48.3780 C.ar   89  TYR89      -0.0009
    141  CD2       31.5840   14.7510   48.9120 C.ar   89  TYR89      -0.0009
    142  CE1       28.9480   14.4370   49.7280 C.ar   89  TYR89       0.0417
    143  CE2       31.2760   14.8400   50.2710 C.ar   89  TYR89       0.0417
    144  CZ        29.9540   14.6790   50.6670 C.ar   89  TYR89       0.1957
    145  OH        29.6340   14.7680   52.0000 O.3    89  TYR89      -0.2866
    146  N         41.7330   11.2860   52.5680 N.3    95  PHE95      -0.1227
    147  CA        41.3260   11.8520   53.8380 C.3    95  PHE95       0.1736
    148  C         40.1710   12.8420   53.7160 C.2    95  PHE95       0.2595
    149  O         39.5660   13.2100   54.7220 O.2    95  PHE95      -0.2718
    150  CB        42.4860   12.4460   54.6530 C.3    95  PHE95       0.0547
    151  CG        43.2690   13.5120   53.9300 C.ar   95  PHE95      -0.0202
    152  CD1       42.8590   14.8420   53.9710 C.ar   95  PHE95      -0.0042
    153  CD2       44.4220   13.1830   53.2120 C.ar   95  PHE95      -0.0042
    154  CE1       43.5820   15.8290   53.3000 C.ar   95  PHE95      -0.0003
    155  CE2       45.1610   14.1560   52.5380 C.ar   95  PHE95      -0.0003
    156  CZ        44.7350   15.4800   52.5860 C.ar   95  PHE95      -0.0000
    157  N         39.8590   13.2790   52.4970 N.am   96  LEU96      -0.1966
    158  CA        38.7650   14.2100   52.3140 C.3    96  LEU96       0.1728
    159  C         37.4490   13.4760   52.4620 C.2    96  LEU96       0.2616
    160  O         37.3160   12.2930   52.1580 O.2    96  LEU96      -0.2715
    161  CB        38.8050   14.9010   50.9510 C.3    96  LEU96       0.0311
    162  CG        40.1270   15.5960   50.7200 C.3    96  LEU96       0.0022
    163  CD1       40.1860   15.9940   49.2510 C.3    96  LEU96       0.0001
    164  CD2       40.1900   16.8200   51.6280 C.3    96  LEU96       0.0001
    165  N         36.4560   14.2010   52.9420 N.am   97  GLN97      -0.1977
    166  CA        35.1330   13.6500   53.1630 C.3    97  GLN97       0.1601
    167  C         34.4830   13.0320   51.9270 C.2    97  GLN97       0.2287
    168  O         34.7020   13.4810   50.8170 O.2    97  GLN97      -0.2864
    169  CB        34.2540   14.7570   53.7920 C.3    97  GLN97       0.0394
    170  CG        32.8040   14.3890   54.1640 C.3    97  GLN97       0.0908
    171  CD        32.0310   15.6150   54.6380 C.2    97  GLN97       0.2608
    172  OE1       32.1580   15.9890   55.8060 O.2    97  GLN97      -0.2717
    173  NE2       31.3210   16.3410   53.7760 N.am   97  GLN97      -0.0878
    174  N         24.7940   13.6940   48.9530 N.3   101  ASP101     -0.1239
    175  CA        23.9270   14.7670   49.3750 C.3   101  ASP101      0.1674
    176  C         22.9680   15.1430   48.2600 C.2   101  ASP101      0.2266
    177  O         23.2660   15.0030   47.0680 O.2   101  ASP101     -0.2867
    178  CB        24.7930   16.0290   49.5710 C.3   101  ASP101      0.1410
    179  CG        25.5680   16.0770   50.8550 C.2   101  ASP101      0.3668
    180  OD1       25.2770   15.4010   51.8120 O.co2 101  ASP101     -0.2456
    181  OD2       26.5390   16.9590   50.8580 O.co2 101  ASP101     -0.2456
    182  N         21.2310   17.7360   45.8800 N.3   103  HIS103     -0.1241
    183  CA        21.8220   18.9190   45.2700 C.3   103  HIS103      0.1621
    184  C         20.7190   19.5500   44.4400 C.2   103  HIS103      0.2264
    185  O         20.3580   19.0540   43.3860 O.2   103  HIS103     -0.2867
    186  CB        23.0570   18.5910   44.3920 C.3   103  HIS103      0.0745
    187  CG        23.8260   19.7570   43.8040 C.ar  103  HIS103      0.0817
    188  ND1       25.0410   20.1780   44.3260 N.ar  103  HIS103     -0.2268
    189  CD2       23.5480   20.5590   42.7370 C.ar  103  HIS103      0.1154
    190  CE1       25.4710   21.1990   43.5880 C.ar  103  HIS103      0.1986
    191  NE2       24.5940   21.4560   42.6310 N.ar  103  HIS103     -0.2212
    192  N         22.3800   27.3140   44.7180 N.3   116  GLN116     -0.1245
    193  CA        22.3180   25.9050   45.0420 C.3   116  GLN116      0.1566
    194  C         21.9340   25.7190   46.5150 C.2   116  GLN116      0.2260
    195  O         22.1350   26.5850   47.3650 O.2   116  GLN116     -0.2867
    196  CB        23.6940   25.2740   44.6950 C.3   116  GLN116      0.0367
    197  CG        23.8900   23.8060   45.1160 C.3   116  GLN116      0.0905
    198  CD        24.3640   23.6800   46.5480 C.2   116  GLN116      0.2608
    199  OE1       24.6520   24.6850   47.2010 O.2   116  GLN116     -0.2717
    200  NE2       24.4020   22.4610   47.0670 N.am  116  GLN116     -0.0878
    201  N         20.7040   18.3810   54.6290 N.3   120  ARG120     -0.1245
    202  CA        21.2840   17.1050   54.9870 C.3   120  ARG120      0.1563
    203  C         20.5240   16.3890   56.0530 C.2   120  ARG120      0.2260
    204  O         20.8130   15.2290   56.3240 O.2   120  ARG120     -0.2867
    205  CB        22.7020   17.2670   55.5070 C.3   120  ARG120      0.0307
    206  CG        23.5290   17.9440   54.4230 C.3   120  ARG120      0.0489
    207  CD        24.7540   17.2060   53.9190 C.3   120  ARG120      0.2205
    208  NE        25.7960   17.7110   54.7730 N.pl3 120  ARG120     -0.0865
    209  CZ        27.1020   17.9180   54.5830 C.cat 120  ARG120      0.5346
    210  NH1       27.7490   17.6410   53.4340 N.pl3 120  ARG120      0.1354
    211  NH2       27.8350   18.4180   55.5810 N.pl3 120  ARG120      0.1354
    212  N         23.1000   23.6180   53.6840 N.3   132  TYR132     -0.1241
    213  CA        24.1760   24.3320   53.0330 C.3   132  TYR132      0.1605
    214  C         23.6610   24.8940   51.7150 C.2   132  TYR132      0.2264
    215  O         22.7740   24.3040   51.0950 O.2   132  TYR132     -0.2867
    216  CB        25.5880   23.7480   53.0130 C.3   132  TYR132      0.0534
    217  CG        25.7870   22.5820   52.0780 C.ar  132  TYR132     -0.0201
    218  CD1       26.1690   22.7830   50.7410 C.ar  132  TYR132     -0.0009
    219  CD2       25.6100   21.2890   52.5380 C.ar  132  TYR132     -0.0009
    220  CE1       26.3570   21.6940   49.8850 C.ar  132  TYR132      0.0417
    221  CE2       25.8010   20.1740   51.6950 C.ar  132  TYR132      0.0417
    222  CZ        26.1740   20.3950   50.3900 C.ar  132  TYR132      0.1957
    223  OH        26.3640   19.3190   49.5640 O.3   132  TYR132     -0.2866
    224  N         25.0530   27.4910   48.1950 N.3   134  PHE134     -0.1241
    225  CA        26.1030   28.2770   47.5770 C.3   134  PHE134      0.1605
    226  C         25.4810   29.1860   46.5470 C.2   134  PHE134      0.2264
    227  O         24.4870   28.8240   45.9250 O.2   134  PHE134     -0.2867
    228  CB        27.0900   27.4550   46.7210 C.3   134  PHE134      0.0534
    229  CG        28.1630   26.7400   47.4920 C.ar  134  PHE134     -0.0203
    230  CD1       29.3870   27.3400   47.7820 C.ar  134  PHE134     -0.0042
    231  CD2       27.9370   25.4370   47.9300 C.ar  134  PHE134     -0.0042
    232  CE1       30.3690   26.6570   48.4960 C.ar  134  PHE134     -0.0003
    233  CE2       28.9050   24.7420   48.6490 C.ar  134  PHE134     -0.0003
    234  CZ        30.1250   25.3530   48.9270 C.ar  134  PHE134     -0.0000
    235  N         26.7340   31.0410   43.2650 N.3   136  PHE136     -0.1241
    236  CA        27.8200   30.9910   42.3090 C.3   136  PHE136      0.1605
    237  C         27.6910   32.0790   41.2790 C.2   136  PHE136      0.2264
    238  O         26.6050   32.5470   40.9990 O.2   136  PHE136     -0.2867
    239  CB        27.7860   29.6740   41.5140 C.3   136  PHE136      0.0534
    240  CG        28.1440   28.4480   42.3040 C.ar  136  PHE136     -0.0203
    241  CD1       29.4480   28.2140   42.7450 C.ar  136  PHE136     -0.0042
    242  CD2       27.1480   27.5220   42.6090 C.ar  136  PHE136     -0.0042
    243  CE1       29.7570   27.0620   43.4770 C.ar  136  PHE136     -0.0003
    244  CE2       27.4410   26.3750   43.3480 C.ar  136  PHE136     -0.0003
    245  CZ        28.7500   26.1460   43.7810 C.ar  136  PHE136     -0.0000
@<TRIPOS>BOND
     1    44    43    2
     2    43    42    1
     3    42    45    1
     4    42    41    1
     5    45    46    1
     6    46    48   ar
     7    46    47   ar
     8    48    50   ar
     9   118   117    2
    10    47    49   ar
    11    52    53    1
    12    39    38    2
    13    53    54    1
    14    53    56    1
    15    38    37    1
    16   117   116    1
    17    50    51   ar
    18    54    55    2
    19   119   116    1
    20   119   120    1
    21   121   120   ar
    22   121   123   ar
    23   115   116    1
    24    49    51   ar
    25   120   122   ar
    26   114   113    2
    27   123   125   ar
    28    37    36    1
    29    37    40    1
    30   109   108    1
    31   238   237    2
    32   122   124   ar
    33   113   112    1
    34   125   124   ar
    35   237   236    1
    36   239   240    1
    37   239   236    1
    38   110   108    1
    39   108   105    1
    40    57    58    1
    41   111   112    1
    42   111   106   am
    43   240   242   ar
    44   240   241   ar
    45   236   235    1
    46   105   106    1
    47   105   104    1
    48   242   244   ar
    49    99    98    2
    50   191   189   ar
    51   191   190   ar
    52   189   187   ar
    53   241   243   ar
    54    58    59    1
    55    58    61    1
    56   106   107    2
    57   244   245   ar
    58   185   184    2
    59    59    60    2
    60   243   245   ar
    61   190   188   ar
    62    98   104   am
    63    98    97    1
    64   187   188   ar
    65   187   186    1
    66    31    30    2
    67   131   130    1
    68   131   132    1
    69   186   183    1
    70   130   127    1
    71   127   126    1
    72   127   128    1
    73   184   183    1
    74    30    29    1
    75   132   133    1
    76   196   193    1
    77   196   197    1
    78   192   193    1
    79    96    97    1
    80    97   100    1
    81   193   194    1
    82   197   198    1
    83   183   182    1
    84   128   129    2
    85   100   101    1
    86    29    28    1
    87    29    32    1
    88   227   226    2
    89    34    32    1
    90   135   134    1
    91   135   138    1
    92   135   136    1
    93   138   139    1
    94   194   195    2
    95   226   225    1
    96   198   200   am
    97   198   199    2
    98   228   229    1
    99   228   225    1
   100    32    33    1
   101   136   137    2
   102   177   176    2
   103   101   102    1
   104   229   230   ar
   105   229   231   ar
   106   225   224    1
   107   230   232   ar
   108   231   233   ar
   109   139   140   ar
   110   139   141   ar
   111    33    35    1
   112   176   175    1
   113   102   103    1
   114   140   142   ar
   115   232   234   ar
   116    26    25    1
   117   233   234   ar
   118   141   143   ar
   119   174   175    1
   120   163   162    1
   121   175   178    1
   122   223   222    1
   123   178   179    1
   124    27    25    1
   125   142   144   ar
   126   220   222   ar
   127   220   218   ar
   128    25    24    1
   129   143   144   ar
   130   222   221   ar
   131   144   145    1
   132   162   161    1
   133   162   164    1
   134   218   217   ar
   135   168   167    2
   136   179   181   ar
   137   179   180   ar
   138    24    21    1
   139   161   158    1
   140   215   214    2
   141    19    18   ar
   142    19    17   ar
   143   221   219   ar
   144   214   213    1
   145   167   166    1
   146    68    66    1
   147   217   219   ar
   148   217   216    1
   149    18    16   ar
   150   160   159    2
   151    17    15   ar
   152   158   159    1
   153   158   157    1
   154    21    22    1
   155    21    20    1
   156   159   165   am
   157   157   148   am
   158    62    63    1
   159   155   156   ar
   160   155   153   ar
   161   146   147    1
   162   156   154   ar
   163    22    23    2
   164   165   166    1
   165   216   213    1
   166   213   212    1
   167    20    11   am
   168   166   169    1
   169   153   151   ar
   170   154   152   ar
   171    16    14   ar
   172   210   209    1
   173    15    14   ar
   174    66    63    1
   175    66    67    1
   176    63    64    1
   177   148   147    1
   178   148   149    2
   179   173   171   am
   180   169   170    1
   181   147   150    1
   182   207   206    1
   183   207   208    1
   184   151   152   ar
   185   151   150    1
   186    14    13    1
   187   170   171    1
   188    11    12    2
   189    11    10    1
   190   206   205    1
   191   209   208    2
   192   209   211    1
   193   201   202    1
   194   171   172    2
   195    65    64    2
   196    64    69   am
   197   202   205    1
   198   202   203    1
   199    10    13    1
   200    10     9    1
   201    69    70    1
   202   203   204    2
   203     9     3   am
   204    86    85    1
   205     4     3    2
   206    87    85    1
   207     3     2    1
   208    70    71    1
   209    70    73    1
   210    85    84    1
   211    71    80   am
   212    71    72    2
   213    80    81    1
   214    74    73    1
   215    74    75    1
   216     5     2    1
   217     5     6    1
   218     2     1    1
   219    84    81    1
   220     7     6    1
   221    81    82    1
   222    76    75    1
   223    76    77    2
   224    79    77    1
   225     6     8    1
   226    77    78    1
   227    82    83    2
   228    82    88   am
   229    88    89    1
   230    89    92    1
   231    89    90    1
   232    92    93    1
   233    90    91    2
   234    95    93    1
   235    93    94    1
