@<TRIPOS>MOLECULE
tmp/1ermA00.pdb
 128 120 0 0 0
SMALL
GASTEIGER

@<TRIPOS>ATOM
      1  N         36.0900   35.0620   31.3270 N.3    45  SER45      -0.1217
      2  CA        36.2060   35.7230   30.0340 C.3    45  SER45       0.1889
      3  C         35.5450   35.0070   28.8700 C.2    45  SER45       0.2288
      4  O         35.5150   35.5010   27.7630 O.2    45  SER45      -0.2866
      5  CB        37.6600   35.9630   29.7290 C.3    45  SER45       0.2089
      6  OG        38.1560   37.0430   30.5080 O.3    45  SER45      -0.2183
      7  N         42.7990   45.9400   35.1020 N.3    79  GLU79      -0.1231
      8  CA        43.8630   44.9380   34.9770 C.3    79  GLU79       0.1699
      9  C         43.5740   44.0830   33.7500 C.2    79  GLU79       0.2592
     10  O         42.4090   43.8020   33.4520 O.2    79  GLU79      -0.2718
     11  CB        43.9200   44.0020   36.2040 C.3    79  GLU79       0.0402
     12  CG        43.2930   44.5160   37.5210 C.3    79  GLU79       0.1161
     13  CD        44.3090   44.4670   38.6580 C.2    79  GLU79       0.3649
     14  OE1       45.2740   43.6530   38.5440 O.co2  79  GLU79      -0.2457
     15  OE2       44.2070   45.2520   39.6530 O.co2  79  GLU79      -0.2457
     16  N         44.6110   43.6200   33.0630 N.am   80  TYR80      -0.1976
     17  CA        44.4140   42.7750   31.9070 C.3    80  TYR80       0.1639
     18  C         43.8090   43.5190   30.7130 C.2    80  TYR80       0.2290
     19  O         42.7750   43.1060   30.1530 O.2    80  TYR80      -0.2864
     20  CB        43.7450   41.3910   32.2340 C.3    80  TYR80       0.0560
     21  CG        44.2300   40.3930   31.2190 C.ar   80  TYR80      -0.0198
     22  CD1       43.4570   40.1290   30.0620 C.ar   80  TYR80      -0.0009
     23  CD2       45.5570   39.9600   31.2330 C.ar   80  TYR80      -0.0009
     24  CE1       43.9310   39.4250   29.0030 C.ar   80  TYR80       0.0417
     25  CE2       46.0650   39.2640   30.1440 C.ar   80  TYR80       0.0417
     26  CZ        45.2300   38.9780   29.0280 C.ar   80  TYR80       0.1957
     27  OH        45.7190   38.2950   27.9210 O.3    80  TYR80      -0.2866
     28  N         41.4970   38.6320   25.2090 N.3   105  SER105     -0.1217
     29  CA        40.8490   38.7140   26.5030 C.3   105  SER105      0.1889
     30  C         40.8970   40.0760   27.1810 C.2   105  SER105      0.2288
     31  O         40.7160   40.1540   28.3880 O.2   105  SER105     -0.2866
     32  CB        41.4640   37.7270   27.4780 C.3   105  SER105      0.2089
     33  OG        40.8120   36.5110   27.3530 O.3   105  SER105     -0.2183
     34  N         40.2580   43.1670   29.1080 N.3   107  ASN107     -0.1240
     35  CA        39.1650   43.5140   30.0330 C.3   107  ASN107      0.1653
     36  C         38.5110   44.8720   29.8070 C.2   107  ASN107      0.2266
     37  O         37.2920   45.0090   29.9150 O.2   107  ASN107     -0.2867
     38  CB        39.6180   43.4590   31.4690 C.3   107  ASN107      0.1155
     39  CG        39.6080   42.0690   31.9950 C.2   107  ASN107      0.2627
     40  OD1       38.8720   41.2020   31.4560 O.2   107  ASN107     -0.2716
     41  ND2       40.3570   41.8210   33.0670 N.am  107  ASN107     -0.0877
     42  N         34.0050   43.6410   34.3710 N.3   141  GLU141     -0.1231
     43  CA        35.3720   43.1470   34.5690 C.3   141  GLU141      0.1684
     44  C         36.1290   44.1490   35.4690 C.2   141  GLU141      0.2434
     45  O         36.0190   45.3720   35.2970 O.2   141  GLU141     -0.2733
     46  CB        36.1110   43.0060   33.2040 C.3   141  GLU141      0.0402
     47  CG        35.6220   41.8630   32.3030 C.3   141  GLU141      0.1161
     48  CD        36.1910   40.4940   32.7710 C.2   141  GLU141      0.3649
     49  OE1       36.2410   39.5990   31.9270 O.co2 141  GLU141     -0.2457
     50  OE2       36.7540   40.3770   33.8840 O.co2 141  GLU141     -0.2457
     51  N         36.8910   43.6280   36.4220 N.am  142  PRO142     -0.2729
     52  CA        37.1080   42.1940   36.6210 C.3   142  PRO142      0.1401
     53  C         36.3430   41.5210   37.7610 C.2   142  PRO142      0.2269
     54  O         36.6220   40.3650   38.0920 O.2   142  PRO142     -0.2865
     55  CB        38.5960   42.1740   37.0230 C.3   142  PRO142      0.0296
     56  CG        38.7790   43.4980   37.7520 C.3   142  PRO142      0.0237
     57  CD        37.7980   44.4770   37.1910 C.3   142  PRO142      0.0939
     58  N         34.8570   37.7680   37.8930 N.3   145  ASN145     -0.1240
     59  CA        35.7110   36.5720   38.0460 C.3   145  ASN145      0.1653
     60  C         35.8690   36.0700   39.5130 C.2   145  ASN145      0.2266
     61  O         36.7100   35.2050   39.8180 O.2   145  ASN145     -0.2867
     62  CB        37.1330   36.8770   37.5270 C.3   145  ASN145      0.1155
     63  CG        37.1360   37.2920   36.0880 C.2   145  ASN145      0.2627
     64  OD1       36.7830   36.4990   35.2100 O.2   145  ASN145     -0.2716
     65  ND2       37.5290   38.5290   35.8200 N.am  145  ASN145     -0.0877
     66  N         45.5340   33.8520   23.0990 N.3   190  VAL190     -0.1245
     67  CA        45.9050   33.5480   24.4690 C.3   190  VAL190      0.1561
     68  C         45.5660   32.1250   24.9100 C.2   190  VAL190      0.2260
     69  O         45.8550   31.7580   26.0390 O.2   190  VAL190     -0.2867
     70  CB        45.2420   34.4970   25.4440 C.3   190  VAL190      0.0252
     71  CG1       45.7950   35.9150   25.2140 C.3   190  VAL190      0.0019
     72  CG2       43.7610   34.4690   25.2710 C.3   190  VAL190      0.0019
     73  N         37.5190   30.3740   22.8350 N.3   208  LYS208     -0.1231
     74  CA        37.5820   31.4730   23.7840 C.3   208  LYS208      0.1693
     75  C         37.7950   30.8810   25.1790 C.2   208  LYS208      0.2593
     76  O         37.0010   30.0860   25.6440 O.2   208  LYS208     -0.2718
     77  CB        36.3020   32.3250   23.7630 C.3   208  LYS208      0.0285
     78  CG        36.3070   33.4870   24.8310 C.3   208  LYS208      0.0035
     79  CD        37.1610   34.6160   24.2220 C.3   208  LYS208      0.0206
     80  CE        37.8450   35.5570   25.2570 C.3   208  LYS208      0.1093
     81  NZ        39.1530   35.0400   25.8150 N.3   208  LYS208     -0.1314
     82  N         38.8670   31.2940   25.8430 N.am  209  SER209     -0.1938
     83  CA        39.2170   30.8590   27.1850 C.3   209  SER209      0.2055
     84  C         38.8510   31.8890   28.2460 C.2   209  SER209      0.2644
     85  O         38.3890   32.9740   27.9530 O.2   209  SER209     -0.2714
     86  CB        40.7830   30.6650   27.2510 C.3   209  SER209      0.2130
     87  OG        41.5300   31.7890   26.7910 O.3   209  SER209     -0.2179
     88  N         39.1170   31.5520   29.5020 N.am  210  GLY210     -0.1939
     89  CA        38.9290   32.4830   30.5880 C.3   210  GLY210      0.2014
     90  C         39.6500   31.9200   31.8050 C.2   210  GLY210      0.2639
     91  O         39.8850   30.7000   31.8740 O.2   210  GLY210     -0.2714
     92  N         39.9500   32.7830   32.7720 N.am  211  ALA211     -0.1963
     93  CA        40.5610   32.3780   34.0400 C.3   211  ALA211      0.1728
     94  C         39.9250   33.2980   35.0610 C.2   211  ALA211      0.2617
     95  O         39.4510   34.3830   34.6940 O.2   211  ALA211     -0.2715
     96  CB        42.1140   32.5450   34.0750 C.3   211  ALA211      0.0334
     97  N         39.8940   32.8890   36.3280 N.am  212  GLY212     -0.1940
     98  CA        39.2810   33.7070   37.3760 C.3   212  GLY212      0.2014
     99  C         39.8030   33.2990   38.7350 C.2   212  GLY212      0.2638
    100  O         40.7670   32.5440   38.8300 O.2   212  GLY212     -0.2714
    101  N         39.1720   33.7610   39.7980 N.am  213  GLU213     -0.1977
    102  CA        39.6480   33.3830   41.1220 C.3   213  GLU213      0.1602
    103  C         39.2970   31.9630   41.5080 C.2   213  GLU213      0.2287
    104  O         38.5020   31.2960   40.8510 O.2   213  GLU213     -0.2864
    105  CB        38.9440   34.2270   42.1610 C.3   213  GLU213      0.0415
    106  CG        38.8320   35.6120   41.7540 C.3   213  GLU213      0.1163
    107  CD        40.0550   36.3880   42.1900 C.2   213  GLU213      0.3649
    108  OE1       41.1830   36.0410   41.7370 O.co2 213  GLU213     -0.2457
    109  OE2       39.9110   37.2100   43.1380 O.co2 213  GLU213     -0.2457
    110  N         38.9680   28.2500   35.5570 N.3   217  ARG217     -0.1245
    111  CA        39.5690   28.2180   34.2440 C.3   217  ARG217      0.1563
    112  C         38.5250   27.6050   33.3260 C.2   217  ARG217      0.2260
    113  O         37.7350   26.7820   33.7750 O.2   217  ARG217     -0.2867
    114  CB        40.7920   27.2850   34.3760 C.3   217  ARG217      0.0307
    115  CG        41.7390   27.2990   33.1510 C.3   217  ARG217      0.0489
    116  CD        42.4040   28.6120   33.1030 C.3   217  ARG217      0.2205
    117  NE        43.4680   28.6800   32.1290 N.pl3 217  ARG217     -0.0865
    118  CZ        43.5230   29.5780   31.1580 C.cat 217  ARG217      0.5346
    119  NH1       42.5330   30.4310   30.9600 N.pl3 217  ARG217      0.1354
    120  NH2       44.5940   29.6110   30.3950 N.pl3 217  ARG217      0.1354
    121  N         48.0860   27.7350   37.6050 N.3   244  MET244     -0.1245
    122  CA        47.6200   27.9180   36.2610 C.3   244  MET244      0.1570
    123  C         48.1920   26.8480   35.3360 C.2   244  MET244      0.2261
    124  O         47.4790   26.3440   34.4850 O.2   244  MET244     -0.2867
    125  CB        48.1230   29.2630   35.7750 C.3   244  MET244      0.0387
    126  CG        47.5220   29.6590   34.4560 C.3   244  MET244      0.0595
    127  SD        45.6720   29.8700   34.5140 S.3   244  MET244     -0.1393
    128  CE        45.3790   31.6220   34.7880 C.3   244  MET244      0.0692
@<TRIPOS>BOND
     1    73    74    1
     2    66    67    1
     3    77    74    1
     4    77    78    1
     5    74    75    1
     6    79    78    1
     7    79    80    1
     8    67    68    1
     9    67    70    1
    10    68    69    2
    11    75    76    2
    12    75    82   am
    13    28    29    1
    14    71    70    1
    15    80    81    1
    16    72    70    1
    17    82    83    1
    18    29    30    1
    19    29    32    1
    20    87    86    1
    21    30    31    2
    22    83    86    1
    23    83    84    1
    24    33    32    1
    25     4     3    2
    26    27    26    1
    27    85    84    2
    28    84    88   am
    29     3     2    1
    30    24    26   ar
    31    24    22   ar
    32    26    25   ar
    33    34    35    1
    34    88    89    1
    35     5     2    1
    36     5     6    1
    37    36    37    2
    38    36    35    1
    39    35    38    1
    40     2     1    1
    41    22    21   ar
    42    25    23   ar
    43    19    18    2
    44   120   118    1
    45    89    90    1
    46    18    17    1
    47   119   118    1
    48   118   117    2
    49    21    23   ar
    50    21    20    1
    51    40    39    2
    52    38    39    1
    53    90    91    2
    54    90    92   am
    55    17    20    1
    56    17    16    1
    57    49    48   ar
    58    39    41   am
    59   117   116    1
    60    47    48    1
    61    47    46    1
    62    48    50   ar
    63    92    93    1
    64    16     9   am
    65   116   115    1
    66   115   114    1
    67    46    43    1
    68   112   113    2
    69   112   111    1
    70    10     9    2
    71     9     8    1
    72    93    96    1
    73    93    94    1
    74   111   114    1
    75   111   110    1
    76    42    43    1
    77   126   127    1
    78   126   125    1
    79   124   123    2
    80   127   128    1
    81    43    44    1
    82    95    94    2
    83     8     7    1
    84     8    11    1
    85    94    97   am
    86    64    63    2
    87    45    44    2
    88   123   122    1
    89    44    51   am
    90   125   122    1
    91    65    63   am
    92    63    62    1
    93    11    12    1
    94   122   121    1
    95    97    98    1
    96    51    52    1
    97    51    57    1
    98    52    55    1
    99    52    53    1
   100    55    56    1
   101    57    56    1
   102    98    99    1
   103    12    13    1
   104    62    59    1
   105    53    54    2
   106    58    59    1
   107    59    60    1
   108    14    13   ar
   109    13    15   ar
   110    99   100    2
   111    99   101   am
   112    60    61    2
   113   101   102    1
   114   104   103    2
   115   102   103    1
   116   102   105    1
   117   108   107   ar
   118   106   105    1
   119   106   107    1
   120   107   109   ar
