@<TRIPOS>MOLECULE
tmp/1eroA00.pdb
 108 98 0 0 0
SMALL
GASTEIGER

@<TRIPOS>ATOM
      1  N         36.1890   35.0760   31.3370 N.3    45  SER45      -0.1217
      2  CA        36.3330   35.7010   30.0110 C.3    45  SER45       0.1889
      3  C         35.5380   35.0540   28.8190 C.2    45  SER45       0.2288
      4  O         35.4970   35.6250   27.7080 O.2    45  SER45      -0.2866
      5  CB        37.7910   35.9450   29.6740 C.3    45  SER45       0.2089
      6  OG        38.2870   37.1170   30.5170 O.3    45  SER45      -0.2183
      7  N         32.9020   37.0240   26.7460 N.3    48  LYS48      -0.1245
      8  CA        33.2660   37.9870   25.7130 C.3    48  LYS48       0.1561
      9  C         32.7280   37.6000   24.3590 C.2    48  LYS48       0.2260
     10  O         32.3410   38.4500   23.5510 O.2    48  LYS48      -0.2867
     11  CB        34.7400   38.3060   25.6580 C.3    48  LYS48       0.0271
     12  CG        35.0960   39.0950   26.9050 C.3    48  LYS48       0.0035
     13  CD        36.5900   39.1870   27.2300 C.3    48  LYS48       0.0206
     14  CE        36.8440   39.6020   28.6850 C.3    48  LYS48       0.1093
     15  NZ        38.2660   39.6290   29.0650 N.3    48  LYS48      -0.1314
     16  N         44.7530   44.1350   33.2930 N.3    80  TYR80      -0.1241
     17  CA        44.7110   43.2980   32.1220 C.3    80  TYR80       0.1605
     18  C         44.0090   43.9140   30.8990 C.2    80  TYR80       0.2264
     19  O         43.0050   43.4040   30.4110 O.2    80  TYR80      -0.2867
     20  CB        44.2480   41.8510   32.4370 C.3    80  TYR80       0.0534
     21  CG        44.5810   41.0240   31.2350 C.ar   80  TYR80      -0.0201
     22  CD1       43.5990   40.5610   30.3590 C.ar   80  TYR80      -0.0009
     23  CD2       45.9170   40.8790   30.8620 C.ar   80  TYR80      -0.0009
     24  CE1       43.9470   39.8790   29.1910 C.ar   80  TYR80       0.0417
     25  CE2       46.2810   40.2200   29.6880 C.ar   80  TYR80       0.0417
     26  CZ        45.2900   39.7060   28.8490 C.ar   80  TYR80       0.1957
     27  OH        45.6500   39.0470   27.6870 O.3    80  TYR80      -0.2866
     28  N         41.5190   38.7930   25.1590 N.3   105  SER105     -0.1217
     29  CA        40.8180   38.9020   26.4380 C.3   105  SER105      0.1889
     30  C         40.8970   40.2540   27.1170 C.2   105  SER105      0.2288
     31  O         40.7360   40.3030   28.3330 O.2   105  SER105     -0.2866
     32  CB        41.1410   37.8390   27.4590 C.3   105  SER105      0.2089
     33  OG        41.0000   36.6060   26.8060 O.3   105  SER105     -0.2183
     34  N         40.3620   43.3140   29.1280 N.3   107  ASN107     -0.1240
     35  CA        39.3120   43.6490   30.0980 C.3   107  ASN107      0.1653
     36  C         38.5820   44.9530   29.8380 C.2   107  ASN107      0.2266
     37  O         37.3440   44.9920   29.9040 O.2   107  ASN107     -0.2867
     38  CB        39.7990   43.6070   31.5590 C.3   107  ASN107      0.1155
     39  CG        39.8330   42.1850   32.1020 C.2   107  ASN107      0.2627
     40  OD1       39.3040   41.2490   31.4900 O.2   107  ASN107     -0.2716
     41  ND2       40.4700   42.0000   33.2450 N.am  107  ASN107     -0.0877
     42  N         33.9990   43.7800   34.3640 N.3   141  GLU141     -0.1245
     43  CA        35.3570   43.3160   34.5460 C.3   141  GLU141      0.1567
     44  C         36.0040   44.2490   35.5380 C.2   141  GLU141      0.2260
     45  O         35.7540   45.4410   35.4720 O.2   141  GLU141     -0.2867
     46  CB        36.1550   43.2800   33.2320 C.3   141  GLU141      0.0388
     47  CG        35.7260   42.1320   32.3020 C.3   141  GLU141      0.1160
     48  CD        36.2960   40.7670   32.6280 C.2   141  GLU141      0.3649
     49  OE1       36.3200   39.8500   31.8310 O.co2 141  GLU141     -0.2457
     50  OE2       36.7980   40.6590   33.8370 O.co2 141  GLU141     -0.2457
     51  N         35.0930   37.8080   37.8060 N.3   145  ASN145     -0.1240
     52  CA        35.9470   36.6360   37.9660 C.3   145  ASN145      0.1653
     53  C         36.1300   36.1630   39.4280 C.2   145  ASN145      0.2266
     54  O         36.9470   35.2890   39.7210 O.2   145  ASN145     -0.2867
     55  CB        37.3140   36.8600   37.3090 C.3   145  ASN145      0.1155
     56  CG        37.1330   37.4380   35.9360 C.2   145  ASN145      0.2627
     57  OD1       36.7530   36.7070   35.0030 O.2   145  ASN145     -0.2716
     58  ND2       37.3430   38.7550   35.8250 N.am  145  ASN145     -0.0877
     59  N         45.5460   33.6520   22.8360 N.3   191  VAL191     -0.1245
     60  CA        45.9330   33.3660   24.2120 C.3   191  VAL191      0.1561
     61  C         45.5810   31.9830   24.7370 C.2   191  VAL191      0.2260
     62  O         45.8860   31.6590   25.8830 O.2   191  VAL191     -0.2867
     63  CB        45.3740   34.4090   25.1690 C.3   191  VAL191      0.0252
     64  CG1       45.8300   35.8070   24.7520 C.3   191  VAL191      0.0019
     65  CG2       43.8450   34.3070   25.2100 C.3   191  VAL191      0.0019
     66  N         37.5930   30.4270   22.7730 N.3   209  LYS209     -0.1231
     67  CA        37.7260   31.4660   23.7670 C.3   209  LYS209      0.1693
     68  C         37.8850   30.8470   25.1460 C.2   209  LYS209      0.2593
     69  O         37.0570   30.0320   25.5410 O.2   209  LYS209     -0.2718
     70  CB        36.5720   32.4480   23.7580 C.3   209  LYS209      0.0285
     71  CG        36.7360   33.5710   24.7840 C.3   209  LYS209      0.0035
     72  CD        37.6160   34.7210   24.2930 C.3   209  LYS209      0.0206
     73  CE        37.9980   35.7110   25.3790 C.3   209  LYS209      0.1093
     74  NZ        39.2460   35.3300   26.0490 N.3   209  LYS209     -0.1314
     75  N         38.9270   31.2540   25.8740 N.am  210  SER210     -0.1938
     76  CA        39.1970   30.7730   27.2280 C.3   210  SER210      0.2055
     77  C         38.8830   31.7710   28.3480 C.2   210  SER210      0.2644
     78  O         38.5760   32.9450   28.1460 O.2   210  SER210     -0.2714
     79  CB        40.6840   30.4510   27.3380 C.3   210  SER210      0.2130
     80  OG        41.4660   31.5860   26.9770 O.3   210  SER210     -0.2179
     81  N         39.0500   31.3160   29.5720 N.am  211  GLY211     -0.1939
     82  CA        38.9010   32.2110   30.6760 C.3   211  GLY211      0.2014
     83  C         39.6520   31.7050   31.8780 C.2   211  GLY211      0.2638
     84  O         39.8750   30.5020   31.9870 O.2   211  GLY211     -0.2714
     85  N         40.0480   32.6190   32.7690 N.am  212  ALA212     -0.1977
     86  CA        40.6910   32.2620   34.0180 C.3   212  ALA212      0.1597
     87  C         40.2260   33.2060   35.0730 C.2   212  ALA212      0.2287
     88  O         40.0840   34.3760   34.7870 O.2   212  ALA212     -0.2864
     89  CB        42.1860   32.4330   33.9590 C.3   212  ALA212      0.0319
     90  N         39.0040   28.2580   35.6090 N.3   218  ARG218     -0.1245
     91  CA        39.5880   28.1450   34.2790 C.3   218  ARG218      0.1563
     92  C         38.5570   27.5040   33.3590 C.2   218  ARG218      0.2260
     93  O         37.6990   26.7740   33.8460 O.2   218  ARG218     -0.2867
     94  CB        40.8320   27.2650   34.4000 C.3   218  ARG218      0.0307
     95  CG        41.6940   27.2230   33.1660 C.3   218  ARG218      0.0489
     96  CD        42.3310   28.5700   33.0070 C.3   218  ARG218      0.2205
     97  NE        43.5140   28.5740   32.1620 N.pl3 218  ARG218     -0.0865
     98  CZ        43.6150   29.3990   31.1200 C.cat 218  ARG218      0.5346
     99  NH1       42.6120   30.2100   30.8020 N.pl3 218  ARG218      0.1354
    100  NH2       44.7230   29.3970   30.3780 N.pl3 218  ARG218      0.1354
    101  N         48.3350   27.3830   37.5920 N.3   245  MET245     -0.1245
    102  CA        47.9790   27.6180   36.2270 C.3   245  MET245      0.1570
    103  C         48.4040   26.4770   35.3070 C.2   245  MET245      0.2261
    104  O         47.6000   25.9480   34.5430 O.2   245  MET245     -0.2867
    105  CB        48.7060   28.8990   35.7950 C.3   245  MET245      0.0387
    106  CG        48.0040   29.6220   34.6730 C.3   245  MET245      0.0595
    107  SD        46.2300   29.7310   35.0040 S.3   245  MET245     -0.1393
    108  CE        45.7470   30.9500   33.7570 C.3   245  MET245      0.0692
@<TRIPOS>BOND
     1    66    67    1
     2    59    60    1
     3    10     9    2
     4    70    67    1
     5    70    71    1
     6    67    68    1
     7    60    61    1
     8    60    63    1
     9    72    71    1
    10    72    73    1
    11     9     8    1
    12    61    62    2
    13    64    63    1
    14    68    69    2
    15    68    75   am
    16    28    29    1
    17    63    65    1
    18    73    74    1
    19    11     8    1
    20    11    12    1
    21     8     7    1
    22    75    76    1
    23    29    30    1
    24    29    32    1
    25    33    32    1
    26    12    13    1
    27    80    79    1
    28    30    31    2
    29    76    79    1
    30    76    77    1
    31    13    14    1
    32    27    26    1
    33     4     3    2
    34    78    77    2
    35    77    81   am
    36    14    15    1
    37     3     2    1
    38    26    24   ar
    39    26    25   ar
    40    34    35    1
    41    24    22   ar
    42    81    82    1
    43     5     2    1
    44     5     6    1
    45    25    23   ar
    46    36    37    2
    47    36    35    1
    48     2     1    1
    49    35    38    1
    50    22    21   ar
    51   100    98    1
    52    19    18    2
    53    82    83    1
    54    99    98    1
    55    23    21   ar
    56    18    17    1
    57    98    97    2
    58    21    20    1
    59    40    39    2
    60    38    39    1
    61    49    48   ar
    62    83    84    2
    63    83    85   am
    64    39    41   am
    65    17    20    1
    66    17    16    1
    67    97    96    1
    68    47    48    1
    69    47    46    1
    70    48    50   ar
    71    85    86    1
    72    96    95    1
    73    95    94    1
    74    46    43    1
    75    92    93    2
    76    92    91    1
    77   108   107    1
    78    89    86    1
    79    86    87    1
    80    91    94    1
    81    91    90    1
    82    42    43    1
    83   104   103    2
    84    43    44    1
    85   106   107    1
    86   106   105    1
    87    88    87    2
    88    57    56    2
    89   103   102    1
    90    45    44    2
    91   105   102    1
    92    58    56   am
    93    56    55    1
    94   102   101    1
    95    55    52    1
    96    51    52    1
    97    52    53    1
    98    53    54    2
