@<TRIPOS>MOLECULE
tmp/1erxA01.pdb
 81 78 0 0 0
SMALL
GASTEIGER

@<TRIPOS>ATOM
      1  N         -2.8510   24.8710   36.7780 N.3    73  GLU73      -0.1245
      2  CA        -4.2270   24.4840   36.5870 C.3    73  GLU73       0.1567
      3  C         -4.2220   23.2640   35.6570 C.2    73  GLU73       0.2260
      4  O         -3.6710   23.3770   34.5620 O.2    73  GLU73      -0.2867
      5  CB        -5.0880   25.6140   36.0140 C.3    73  GLU73       0.0388
      6  CG        -5.0100   26.9220   36.7870 C.3    73  GLU73       0.1160
      7  CD        -5.6160   28.1470   36.1410 C.2    73  GLU73       0.3649
      8  OE1       -5.2410   28.5640   35.0320 O.co2  73  GLU73      -0.2457
      9  OE2       -6.5080   28.7460   36.7940 O.co2  73  GLU73      -0.2457
     10  N         -6.1600   20.2890   33.4530 N.3    75  GLN75      -0.1245
     11  CA        -7.3490   19.8500   32.7390 C.3    75  GLN75       0.1566
     12  C         -7.2560   18.3230   32.5650 C.2    75  GLN75       0.2260
     13  O         -6.1700   17.7940   32.3760 O.2    75  GLN75      -0.2867
     14  CB        -7.4890   20.4890   31.3600 C.3    75  GLN75       0.0367
     15  CG        -7.5590   21.9980   31.3810 C.3    75  GLN75       0.0905
     16  CD        -8.6900   22.5580   32.2070 C.2    75  GLN75       0.2608
     17  OE1       -8.5570   23.6250   32.8540 O.2    75  GLN75      -0.2717
     18  NE2       -9.8310   21.9220   32.2140 N.am   75  GLN75      -0.0878
     19  N         -3.3260   17.7270   31.4370 N.3    83  THR83      -0.1203
     20  CA        -2.5820   18.7830   30.7650 C.3    83  THR83       0.1994
     21  C         -2.6200   20.0140   31.6890 C.2    83  THR83       0.2618
     22  O         -3.7270   20.3930   32.0480 O.2    83  THR83      -0.2717
     23  CB        -3.1460   19.1780   29.4050 C.3    83  THR83       0.1784
     24  OG1       -3.2240   17.9870   28.5960 O.3    83  THR83      -0.2211
     25  CG2       -2.2750   20.1830   28.6650 C.3    83  THR83       0.0376
     26  N         -1.4270   20.5130   32.0280 N.am   84  ALA84      -0.1965
     27  CA        -1.3400   21.5750   33.0180 C.3    84  ALA84       0.1728
     28  C         -0.6800   22.7990   32.4390 C.2    84  ALA84       0.2616
     29  O          0.3700   22.7570   31.7900 O.2    84  ALA84      -0.2715
     30  CB        -0.5190   21.0220   34.1820 C.3    84  ALA84       0.0334
     31  N         -1.2720   23.9520   32.6690 N.am   85  ASN85      -0.1972
     32  CA        -0.5320   25.1940   32.4460 C.3    85  ASN85       0.1688
     33  C          0.3890   25.4470   33.6340 C.2    85  ASN85       0.2292
     34  O          0.4180   24.6770   34.6140 O.2    85  ASN85      -0.2864
     35  CB        -1.4780   26.3560   32.2100 C.3    85  ASN85       0.1181
     36  CG        -2.2950   26.7940   33.3860 C.2    85  ASN85       0.2629
     37  OD1       -1.9790   26.5680   34.5550 O.2    85  ASN85      -0.2716
     38  ND2       -3.4210   27.4430   33.0870 N.am   85  ASN85      -0.0877
     39  N          0.7760   32.7030   33.1270 N.3    99  VAL99      -0.1231
     40  CA         0.2880   31.6470   32.2550 C.3    99  VAL99       0.1692
     41  C          0.4450   32.1570   30.8220 C.2    99  VAL99       0.2593
     42  O          0.0880   33.3060   30.4880 O.2    99  VAL99      -0.2718
     43  CB        -1.1690   31.2820   32.5900 C.3    99  VAL99       0.0266
     44  CG1       -1.7670   30.4790   31.4660 C.3    99  VAL99       0.0020
     45  CG2       -1.2780   30.4990   33.9050 C.3    99  VAL99       0.0020
     46  N          1.0110   31.2660   30.0200 N.am  100  THR100     -0.1939
     47  CA         1.3910   31.5630   28.6560 C.3   100  THR100      0.2028
     48  C          0.9920   30.4380   27.7270 C.2   100  THR100      0.2642
     49  O          1.3250   29.2960   28.0190 O.2   100  THR100     -0.2714
     50  CB         2.9210   31.7650   28.6130 C.3   100  THR100      0.1808
     51  OG1        3.2210   32.9180   29.4190 O.3   100  THR100     -0.2208
     52  CG2        3.4380   32.0280   27.2130 C.3   100  THR100      0.0379
     53  N          0.3180   30.8000   26.6460 N.am  101  ALA101     -0.1963
     54  CA         0.0330   29.8880   25.5420 C.3   101  ALA101      0.1728
     55  C          1.3230   29.1490   25.2190 C.2   101  ALA101      0.2617
     56  O          2.3340   29.8380   25.0320 O.2   101  ALA101     -0.2715
     57  CB        -0.4750   30.6530   24.3270 C.3   101  ALA101      0.0334
     58  N          1.3100   27.8250   25.1760 N.am  102  GLY102     -0.1940
     59  CA         2.4940   27.0790   24.7740 C.3   102  GLY102      0.2014
     60  C          3.4040   26.6440   25.9050 C.2   102  GLY102      0.2639
     61  O          4.3370   25.8650   25.6650 O.2   102  GLY102     -0.2714
     62  N          3.1640   27.1400   27.1120 N.am  103  ASN103     -0.1958
     63  CA         3.8850   26.7470   28.3110 C.3   103  ASN103      0.1819
     64  C          2.9790   25.7940   29.1040 C.2   103  ASN103      0.2621
     65  O          2.0380   26.2480   29.7860 O.2   103  ASN103     -0.2715
     66  CB         4.2280   27.9050   29.2490 C.3   103  ASN103      0.1195
     67  CG         5.4350   28.7130   28.8450 C.2   103  ASN103      0.2630
     68  OD1        5.9960   28.4520   27.7770 O.2   103  ASN103     -0.2716
     69  ND2        5.8380   29.7070   29.6440 N.am  103  ASN103     -0.0877
     70  N          3.2550   24.4890   28.9830 N.am  104  TYR104     -0.1974
     71  CA         2.3960   23.4990   29.6050 C.3   104  TYR104      0.1639
     72  C          3.2200   22.2420   29.8510 C.2   104  TYR104      0.2290
     73  O          4.2870   22.0120   29.3180 O.2   104  TYR104     -0.2864
     74  CB         1.1390   23.1780   28.7750 C.3   104  TYR104      0.0560
     75  CG         1.4430   22.3620   27.5460 C.ar  104  TYR104     -0.0198
     76  CD1        1.9220   22.9800   26.4200 C.ar  104  TYR104     -0.0009
     77  CD2        1.2640   20.9790   27.5240 C.ar  104  TYR104     -0.0009
     78  CE1        2.2030   22.2460   25.2820 C.ar  104  TYR104      0.0417
     79  CE2        1.5590   20.2350   26.3940 C.ar  104  TYR104      0.0417
     80  CZ         2.0300   20.8760   25.2660 C.ar  104  TYR104      0.1957
     81  OH         2.3390   20.1540   24.1490 O.3   104  TYR104     -0.2866
@<TRIPOS>BOND
     1    81    80    1
     2    57    54    1
     3    59    58    1
     4    59    60    1
     5    56    55    2
     6    58    55   am
     7    55    54    1
     8    80    78   ar
     9    80    79   ar
    10    78    76   ar
    11    54    53    1
    12    61    60    2
    13    60    62   am
    14    79    77   ar
    15    76    75   ar
    16    53    48   am
    17    62    63    1
    18    52    50    1
    19    77    75   ar
    20    75    74    1
    21    48    49    2
    22    48    47    1
    23    68    67    2
    24    63    64    1
    25    63    66    1
    26    24    23    1
    27    50    47    1
    28    50    51    1
    29    47    46    1
    30    25    23    1
    31    74    71    1
    32    67    66    1
    33    67    69   am
    34    70    64   am
    35    70    71    1
    36    64    65    2
    37    73    72    2
    38    23    20    1
    39    71    72    1
    40    46    41   am
    41    42    41    2
    42    20    19    1
    43    20    21    1
    44    41    40    1
    45    14    15    1
    46    14    11    1
    47    15    16    1
    48    44    43    1
    49    21    26   am
    50    21    22    2
    51    29    28    2
    52    26    27    1
    53    16    18   am
    54    16    17    2
    55    35    32    1
    56    35    36    1
    57    40    43    1
    58    40    39    1
    59    13    12    2
    60    28    31   am
    61    28    27    1
    62    32    31    1
    63    32    33    1
    64    12    11    1
    65    43    45    1
    66    11    10    1
    67    27    30    1
    68    38    36   am
    69    36    37    2
    70    33    34    2
    71     4     3    2
    72     8     7   ar
    73     3     2    1
    74     5     2    1
    75     5     6    1
    76     7     6    1
    77     7     9   ar
    78     2     1    1
