@<TRIPOS>MOLECULE
tmp/1esbA00.pdb
 93 90 0 0 0
SMALL
GASTEIGER

@<TRIPOS>ATOM
      1  N         50.1570   25.6010   32.1820 N.3    29  THR29      -0.1203
      2  CA        49.1720   24.6440   32.6150 C.3    29  THR29       0.1994
      3  C         48.5250   25.1040   33.9430 C.2    29  THR29       0.2618
      4  O         47.2910   25.1320   34.0710 O.2    29  THR29      -0.2717
      5  CB        49.9570   23.2940   32.6310 C.3    29  THR29       0.1784
      6  OG1       48.9430   22.3160   32.6400 O.3    29  THR29      -0.2211
      7  CG2       50.9160   23.1020   33.7520 C.3    29  THR29       0.0376
      8  N         49.3300   25.5960   34.8910 N.am   30  CYS30      -0.1969
      9  CA        48.8420   25.9590   36.2100 C.3    30  CYS30       0.1712
     10  C         49.5050   27.1600   36.8600 C.2    30  CYS30       0.2296
     11  O         50.4970   27.6150   36.3600 O.2    30  CYS30      -0.2864
     12  CB        49.0180   24.7790   37.1970 C.3    30  CYS30       0.0983
     13  SG        47.8400   23.4380   36.9910 S.3    30  CYS30      -0.0798
     14  N         47.1770   17.8330   41.2960 N.3    45  HIS45      -0.1241
     15  CA        46.6860   17.3810   40.0220 C.3    45  HIS45       0.1621
     16  C         47.3450   18.0490   38.8310 C.2    45  HIS45       0.2264
     17  O         47.0810   17.6350   37.6880 O.2    45  HIS45      -0.2867
     18  CB        45.1900   17.5910   39.9250 C.3    45  HIS45       0.0745
     19  CG        44.6960   19.0200   39.7530 C.ar   45  HIS45       0.0817
     20  ND1       44.2620   19.8060   40.7250 N.ar   45  HIS45      -0.2268
     21  CD2       44.5300   19.6750   38.5450 C.ar   45  HIS45       0.1154
     22  CE1       43.8130   20.9120   40.1570 C.ar   45  HIS45       0.1986
     23  NE2       43.9760   20.8230   38.8560 N.ar   45  HIS45      -0.2212
     24  N         47.2650   12.0570   48.1630 N.3    83  TRP83      -0.1241
     25  CA        46.5700   12.5860   47.0150 C.3    83  TRP83       0.1605
     26  C         46.0960   11.4270   46.1440 C.2    83  TRP83       0.2264
     27  O         46.9170   10.5420   45.9140 O.2    83  TRP83      -0.2867
     28  CB        47.4950   13.5240   46.1250 C.3    83  TRP83       0.0550
     29  CG        46.9650   13.8220   44.6960 C.ar   83  TRP83       0.0003
     30  CD1       47.6470   13.3920   43.5470 C.ar   83  TRP83       0.0946
     31  CD2       45.7980   14.5050   44.3770 C.ar   83  TRP83       0.0152
     32  NE1       46.9030   13.8120   42.5410 N.ar   83  TRP83      -0.2442
     33  CE2       45.8100   14.4690   42.9760 C.ar   83  TRP83       0.0810
     34  CE3       44.7770   15.1260   45.0460 C.ar   83  TRP83       0.0012
     35  CZ2       44.7990   15.0590   42.2500 C.ar   83  TRP83       0.0191
     36  CZ3       43.7770   15.7140   44.3260 C.ar   83  TRP83       0.0001
     37  CH2       43.7700   15.6860   42.9230 C.ar   83  TRP83       0.0015
     38  N         39.3560   14.0630   43.2950 N.3    88  VAL88      -0.1245
     39  CA        39.7630   15.3880   43.7930 C.3    88  VAL88       0.1561
     40  C         38.8720   15.8850   44.9840 C.2    88  VAL88       0.2260
     41  O         39.2430   16.7250   45.8020 O.2    88  VAL88      -0.2867
     42  CB        39.7400   16.3400   42.5410 C.3    88  VAL88       0.0252
     43  CG1       38.3470   16.5480   41.9950 C.3    88  VAL88       0.0019
     44  CG2       40.2590   17.6720   42.9480 C.3    88  VAL88       0.0019
     45  N         39.0040   29.1620   36.9520 N.3   184  CYS184     -0.1221
     46  CA        38.6570   28.3060   35.8030 C.3   184  CYS184      0.1808
     47  C         39.9070   27.5310   35.3870 C.2   184  CYS184      0.2601
     48  O         40.9870   27.8810   35.8440 O.2   184  CYS184     -0.2717
     49  CB        38.1580   29.1960   34.6390 C.3   184  CYS184      0.0970
     50  SG        36.9740   28.5220   33.4390 S.3   184  CYS184     -0.0800
     51  N         39.9050   26.5190   34.5220 N.am  185  GLN185     -0.1965
     52  CA        41.0990   25.7770   34.1280 C.3   185  GLN185      0.1733
     53  C         42.3030   26.6550   33.7130 C.2   185  GLN185      0.2616
     54  O         42.1470   27.7140   33.1190 O.2   185  GLN185     -0.2715
     55  CB        40.6500   24.8170   33.0310 C.3   185  GLN185      0.0408
     56  CG        39.7840   23.6770   33.5360 C.3   185  GLN185      0.0908
     57  CD        38.3190   23.9800   33.8010 C.2   185  GLN185      0.2608
     58  OE1       37.6890   24.8590   33.2200 O.2   185  GLN185     -0.2717
     59  NE2       37.6980   23.2330   34.7060 N.am  185  GLN185     -0.0878
     60  N         43.5190   26.3040   34.1030 N.am  186  GLY186     -0.1955
     61  CA        44.7170   27.1010   34.0110 C.3   186  GLY186      0.1869
     62  C         44.9770   27.8990   35.2760 C.2   186  GLY186      0.2309
     63  O         46.0260   28.5310   35.3860 O.2   186  GLY186     -0.2863
     64  N         44.3270   26.4990   38.4890 N.3   188  SER188     -0.1217
     65  CA        44.6030   25.4650   39.4730 C.3   188  SER188      0.1889
     66  C         46.0350   25.5180   39.9780 C.2   188  SER188      0.2288
     67  O         46.9460   25.8460   39.1900 O.2   188  SER188     -0.2866
     68  CB        44.3830   24.0780   38.9130 C.3   188  SER188      0.2089
     69  OG        43.1680   23.8690   38.1880 O.3   188  SER188     -0.2183
     70  N         41.8980   24.4220   43.2670 N.3   207  SER207     -0.1202
     71  CA        41.7510   23.0090   43.1300 C.3   207  SER207      0.2020
     72  C         40.6500   22.6680   42.1700 C.2   207  SER207      0.2619
     73  O         40.8930   21.8130   41.3000 O.2   207  SER207     -0.2717
     74  CB        41.4340   22.3200   44.4650 C.3   207  SER207      0.2103
     75  OG        41.2930   20.8840   44.2730 O.3   207  SER207     -0.2182
     76  N         39.4480   23.2220   42.3430 N.am  208  PHE208     -0.1961
     77  CA        38.4550   22.8620   41.3880 C.3   208  PHE208      0.1771
     78  C         37.2320   23.7090   41.4040 C.2   208  PHE208      0.2619
     79  O         37.0080   24.5810   42.2520 O.2   208  PHE208     -0.2715
     80  CB        38.0260   21.4330   41.5520 C.3   208  PHE208      0.0574
     81  CG        37.3880   20.9760   42.8700 C.ar  208  PHE208     -0.0200
     82  CD1       38.1480   20.4610   43.8910 C.ar  208  PHE208     -0.0042
     83  CD2       36.0200   20.9480   43.0160 C.ar  208  PHE208     -0.0042
     84  CE1       37.5610   19.9300   45.0140 C.ar  208  PHE208     -0.0003
     85  CE2       35.4440   20.4100   44.1500 C.ar  208  PHE208     -0.0003
     86  CZ        36.2140   19.8960   45.1550 C.ar  208  PHE208     -0.0000
     87  N         36.5520   23.4170   40.2710 N.am  209  VAL209     -0.1977
     88  CA        35.2710   23.9520   39.9020 C.3   209  VAL209      0.1596
     89  C         34.3210   22.8190   39.4450 C.2   209  VAL209      0.2287
     90  O         34.6180   21.6170   39.2800 O.2   209  VAL209     -0.2864
     91  CB        35.4400   25.0540   38.7670 C.3   209  VAL209      0.0276
     92  CG1       36.1580   26.2910   39.3270 C.3   209  VAL209      0.0022
     93  CG2       36.2500   24.5640   37.6320 C.3   209  VAL209      0.0022
@<TRIPOS>BOND
     1     1     2    1
     2     2     5    1
     3     2     3    1
     4     5     6    1
     5     5     7    1
     6    55    56    1
     7    55    52    1
     8    54    53    2
     9    58    57    2
    10    50    49    1
    11    56    57    1
    12    53    60   am
    13    53    52    1
    14    57    59   am
    15     3     4    2
    16     3     8   am
    17    61    60    1
    18    61    62    1
    19    52    51    1
    20    51    47   am
    21    49    46    1
    22     8     9    1
    23    62    63    2
    24    47    46    1
    25    47    48    2
    26    46    45    1
    27     9    10    1
    28     9    12    1
    29    11    10    2
    30    13    12    1
    31    93    91    1
    32    17    16    2
    33    69    68    1
    34    64    65    1
    35    21    23   ar
    36    21    19   ar
    37    91    92    1
    38    91    88    1
    39    16    15    1
    40    23    22   ar
    41    68    65    1
    42    67    66    2
    43    90    89    2
    44    89    88    1
    45    65    66    1
    46    19    18    1
    47    19    20   ar
    48    88    87    1
    49    18    15    1
    50    15    14    1
    51    22    20   ar
    52    87    78   am
    53    73    72    2
    54    77    78    1
    55    77    80    1
    56    77    76    1
    57    78    79    2
    58    80    81    1
    59    43    42    1
    60    72    76   am
    61    72    71    1
    62    35    37   ar
    63    35    33   ar
    64    42    44    1
    65    42    39    1
    66    32    33   ar
    67    32    30   ar
    68    81    83   ar
    69    81    82   ar
    70    37    36   ar
    71    33    31   ar
    72    83    85   ar
    73    71    70    1
    74    71    74    1
    75    38    39    1
    76    30    29   ar
    77    39    40    1
    78    82    84   ar
    79    85    86   ar
    80    75    74    1
    81    36    34   ar
    82    31    29   ar
    83    31    34   ar
    84    29    28    1
    85    40    41    2
    86    84    86   ar
    87    27    26    2
    88    28    25    1
    89    26    25    1
    90    25    24    1
