@<TRIPOS>MOLECULE
tmp/1eseA00.pdb
 132 130 0 0 0
SMALL
GASTEIGER

@<TRIPOS>ATOM
      1  N         52.0920   14.7180  -11.3770 N.3    10  ASP10      -0.1225
      2  CA        51.6100   14.2290  -12.6740 C.3    10  ASP10       0.1805
      3  C         50.6440   15.3130  -13.1080 C.2    10  ASP10       0.2598
      4  O         50.7250   16.4580  -12.6830 O.2    10  ASP10      -0.2718
      5  CB        51.0600   12.8170  -12.5780 C.3    10  ASP10       0.1424
      6  CG        49.9810   12.5760  -11.5460 C.2    10  ASP10       0.3668
      7  OD1       49.4740   13.6060  -11.0370 O.co2  10  ASP10      -0.2456
      8  OD2       49.7130   11.3330  -11.3610 O.co2  10  ASP10      -0.2456
      9  N         49.6940   14.9370  -13.9470 N.am   11  SER11      -0.1938
     10  CA        48.7570   15.8860  -14.5710 C.3    11  SER11       0.2055
     11  C         47.5630   16.2650  -13.6540 C.2    11  SER11       0.2643
     12  O         46.7240   17.1990  -13.9470 O.2    11  SER11      -0.2714
     13  CB        48.1330   15.5050  -15.8810 C.3    11  SER11       0.2130
     14  OG        47.4470   14.2690  -15.9040 O.3    11  SER11      -0.2179
     15  N         47.5060   15.6800  -12.4280 N.am   12  TYR12      -0.1973
     16  CA        46.4820   16.0500  -11.4130 C.3    12  TYR12       0.1639
     17  C         47.0120   17.1540  -10.5190 C.2    12  TYR12       0.2290
     18  O         46.2750   17.6700   -9.6670 O.2    12  TYR12      -0.2864
     19  CB        45.9460   14.8320  -10.6680 C.3    12  TYR12       0.0560
     20  CG        44.9350   14.0220  -11.4350 C.ar   12  TYR12      -0.0198
     21  CD1       45.2770   13.2600  -12.5460 C.ar   12  TYR12      -0.0009
     22  CD2       43.6030   13.9680  -11.0620 C.ar   12  TYR12      -0.0009
     23  CE1       44.3770   12.4930  -13.2740 C.ar   12  TYR12       0.0417
     24  CE2       42.6560   13.2350  -11.7660 C.ar   12  TYR12       0.0417
     25  CZ        43.0380   12.5080  -12.8740 C.ar   12  TYR12       0.1957
     26  OH        42.1230   11.7270  -13.5540 O.3    12  TYR12      -0.2866
     27  N         45.8540   19.2650  -16.2300 N.3    16  PHE16      -0.1298
     28  CA        45.6750   19.0120  -17.6400 C.3    16  PHE16       0.1290
     29  C         44.2450   19.5070  -17.8090 C.3    16  PHE16       0.2013
     30  O         43.4840   19.1290  -16.9060 O.3    16  PHE16      -0.2188
     31  CB        45.6820   17.5420  -17.9660 C.3    16  PHE16       0.0480
     32  CG        45.3660   17.3300  -19.4050 C.ar   16  PHE16      -0.0206
     33  CD1       46.3600   17.5860  -20.3450 C.ar   16  PHE16      -0.0042
     34  CD2       44.0740   16.9270  -19.7860 C.ar   16  PHE16      -0.0042
     35  CE1       46.0780   17.3720  -21.6870 C.ar   16  PHE16      -0.0003
     36  CE2       43.7900   16.7370  -21.1240 C.ar   16  PHE16      -0.0003
     37  CZ        44.7970   16.9500  -22.0780 C.ar   16  PHE16      -0.0000
     38  N         51.4290   20.6610  -20.1810 N.3    32  PHE32      -0.1241
     39  CA        50.0030   21.0610  -20.1570 C.3    32  PHE32       0.1605
     40  C         49.7370   21.4830  -18.7170 C.2    32  PHE32       0.2264
     41  O         48.7530   21.0720  -18.1200 O.2    32  PHE32      -0.2867
     42  CB        48.9740   20.0560  -20.6590 C.3    32  PHE32       0.0534
     43  CG        49.0570   19.7430  -22.1380 C.ar   32  PHE32      -0.0203
     44  CD1       48.9060   20.7690  -23.0650 C.ar   32  PHE32      -0.0042
     45  CD2       49.3120   18.4480  -22.5760 C.ar   32  PHE32      -0.0042
     46  CE1       48.9660   20.4800  -24.4340 C.ar   32  PHE32      -0.0003
     47  CE2       49.3660   18.1330  -23.9240 C.ar   32  PHE32      -0.0003
     48  CZ        49.2020   19.1590  -24.8400 C.ar   32  PHE32      -0.0000
     49  N         52.2680   16.7150  -17.1380 N.3    62  GLY62      -0.1210
     50  CA        51.4450   15.5760  -17.4710 C.3    62  GLY62       0.1956
     51  C         52.3790   14.5310  -18.1240 C.2    62  GLY62       0.2612
     52  O         53.3620   14.7460  -18.8920 O.2    62  GLY62      -0.2717
     53  N         51.9120   13.3300  -17.8280 N.am   63  GLY63      -0.1956
     54  CA        52.4280   12.0340  -18.2230 C.3    63  GLY63       0.1869
     55  C         53.4600   11.4810  -17.2380 C.2    63  GLY63       0.2309
     56  O         53.7540   10.2870  -17.3720 O.2    63  GLY63      -0.2863
     57  N         49.5010    7.6280  -10.3280 N.3   102  GLY102     -0.1210
     58  CA        48.5280    7.1910  -11.3180 C.3   102  GLY102      0.1956
     59  C         49.1920    6.6210  -12.5720 C.2   102  GLY102      0.2611
     60  O         48.8500    5.4860  -12.9810 O.2   102  GLY102     -0.2717
     61  N         50.1170    7.3100  -13.2040 N.am  103  ASN103     -0.1974
     62  CA        50.8230    6.8260  -14.3990 C.3   103  ASN103      0.1688
     63  C         51.6430    5.5740  -14.1360 C.2   103  ASN103      0.2292
     64  O         51.8210    4.7000  -14.9930 O.2   103  ASN103     -0.2864
     65  CB        51.7500    7.9160  -15.0010 C.3   103  ASN103      0.1181
     66  CG        50.8160    9.0460  -15.3590 C.2   103  ASN103      0.2629
     67  OD1       49.7040    8.6250  -15.6990 O.2   103  ASN103     -0.2716
     68  ND2       51.2070   10.3000  -15.2520 N.am  103  ASN103     -0.0877
     69  N         46.9010    4.1710  -14.8970 N.3   107  PHE107     -0.1227
     70  CA        45.4380    4.3790  -14.9290 C.3   107  PHE107      0.1736
     71  C         45.0410    4.7580  -16.3550 C.2   107  PHE107      0.2595
     72  O         43.9240    4.3180  -16.6850 O.2   107  PHE107     -0.2718
     73  CB        44.9800    5.3130  -13.8160 C.3   107  PHE107      0.0547
     74  CG        43.5250    5.0930  -13.5130 C.ar  107  PHE107     -0.0202
     75  CD1       43.0710    4.1280  -12.6010 C.ar  107  PHE107     -0.0042
     76  CD2       42.5900    5.8860  -14.2080 C.ar  107  PHE107     -0.0042
     77  CE1       41.7080    3.9570  -12.3900 C.ar  107  PHE107     -0.0003
     78  CE2       41.2040    5.7320  -13.9950 C.ar  107  PHE107     -0.0003
     79  CZ        40.7590    4.7460  -13.0780 C.ar  107  PHE107     -0.0000
     80  N         45.8320    5.4170  -17.1650 N.am  108  ASN108     -0.1974
     81  CA        45.6700    5.8260  -18.5590 C.3   108  ASN108      0.1688
     82  C         45.4850    4.5750  -19.4340 C.2   108  ASN108      0.2292
     83  O         44.5180    4.5910  -20.1830 O.2   108  ASN108     -0.2864
     84  CB        46.7950    6.6720  -19.2330 C.3   108  ASN108      0.1181
     85  CG        48.1570    6.0690  -18.8070 C.2   108  ASN108      0.2629
     86  OD1       48.4630    5.9160  -17.5890 O.2   108  ASN108     -0.2716
     87  ND2       49.0790    5.6360  -19.6740 N.am  108  ASN108     -0.0877
     88  N         45.7550   12.3640  -27.2630 N.3   123  LEU123     -0.1231
     89  CA        46.8250   13.0250  -26.5080 C.3   123  LEU123      0.1693
     90  C         46.9510   12.5210  -25.0760 C.2   123  LEU123      0.2592
     91  O         47.4480   13.2030  -24.1600 O.2   123  LEU123     -0.2718
     92  CB        46.4060   14.5170  -26.6380 C.3   123  LEU123      0.0284
     93  CG        46.5970   15.2260  -27.9690 C.3   123  LEU123      0.0019
     94  CD1       45.6430   16.4050  -28.1440 C.3   123  LEU123      0.0001
     95  CD2       48.0650   15.6980  -28.0120 C.3   123  LEU123      0.0001
     96  N         46.4780   11.3350  -24.8210 N.am  124  LEU124     -0.1966
     97  CA        46.4470   10.6530  -23.5340 C.3   124  LEU124      0.1713
     98  C         47.4550    9.5210  -23.7870 C.2   124  LEU124      0.2458
     99  O         47.1980    8.7290  -24.7020 O.2   124  LEU124     -0.2730
    100  CB        45.0180   10.2800  -23.2110 C.3   124  LEU124      0.0310
    101  CG        44.3090   10.3980  -21.8920 C.3   124  LEU124      0.0022
    102  CD1       43.7190    9.0280  -21.5010 C.3   124  LEU124      0.0001
    103  CD2       45.2390   10.9020  -20.7980 C.3   124  LEU124      0.0001
    104  N         48.5250    9.5640  -23.0250 N.am  125  PRO125     -0.2727
    105  CA        49.6060    8.5970  -23.1150 C.3   125  PRO125      0.1402
    106  C         49.2600    7.1730  -22.6920 C.2   125  PRO125      0.2269
    107  O         48.3960    6.9320  -21.8210 O.2   125  PRO125     -0.2865
    108  CB        50.6890    9.1640  -22.1760 C.3   125  PRO125      0.0296
    109  CG        49.8830    9.9060  -21.1270 C.3   125  PRO125      0.0237
    110  CD        48.7680   10.5650  -21.9490 C.3   125  PRO125      0.0939
    111  N         44.3420   11.4940   -5.5830 N.3   183  TYR183     -0.1241
    112  CA        43.5200   11.6780   -6.7820 C.3   183  TYR183      0.1605
    113  C         42.0660   11.7370   -6.2990 C.2   183  TYR183      0.2264
    114  O         41.6900   10.9660   -5.3900 O.2   183  TYR183     -0.2867
    115  CB        43.7070   10.5460   -7.7950 C.3   183  TYR183      0.0534
    116  CG        45.1480   10.4070   -8.2220 C.ar  183  TYR183     -0.0201
    117  CD1       45.7250   11.3760   -9.0340 C.ar  183  TYR183     -0.0009
    118  CD2       45.9850    9.4240   -7.7090 C.ar  183  TYR183     -0.0009
    119  CE1       47.0720   11.3340   -9.3980 C.ar  183  TYR183      0.0417
    120  CE2       47.3300    9.3430   -8.0670 C.ar  183  TYR183      0.0417
    121  CZ        47.8600   10.3100   -8.9140 C.ar  183  TYR183      0.1957
    122  OH        49.1610   10.2730   -9.3250 O.3   183  TYR183     -0.2866
    123  N         40.0940   14.4870  -16.1680 N.3   280  HIS280     -0.1297
    124  CA        40.9930   15.2490  -15.2810 C.3   280  HIS280      0.1306
    125  C         40.1120   16.3010  -14.5970 C.3   280  HIS280      0.2013
    126  O         39.0610   16.5860  -15.2080 O.3   280  HIS280     -0.2188
    127  CB        41.9690   15.8870  -16.1740 C.3   280  HIS280      0.0691
    128  CG        43.0020   14.9790  -16.7440 C.ar  280  HIS280      0.0814
    129  ND1       42.9060   14.1280  -17.8060 N.ar  280  HIS280     -0.2268
    130  CD2       44.2580   14.8370  -16.2630 C.ar  280  HIS280      0.1154
    131  CE1       44.0650   13.5000  -17.9740 C.ar  280  HIS280      0.1986
    132  NE2       44.8930   13.9220  -17.0480 N.ar  280  HIS280     -0.2212
@<TRIPOS>BOND
     1    94    93    1
     2    95    93    1
     3    93    92    1
     4    88    89    1
     5    92    89    1
     6    89    90    1
     7    90    96   am
     8    90    91    2
     9    48    46   ar
    10    48    47   ar
    11    96    97    1
    12    99    98    2
    13    46    44   ar
    14    47    45   ar
    15    98    97    1
    16    98   104   am
    17    97   100    1
    18   100   101    1
    19   105   104    1
    20   105   106    1
    21   105   108    1
    22    44    43   ar
    23   104   110    1
    24   106   107    2
    25    45    43   ar
    26   108   109    1
    27    43    42    1
    28    37    35   ar
    29    37    36   ar
    30   110   109    1
    31   101   102    1
    32   101   103    1
    33    35    33   ar
    34    36    34   ar
    35    42    39    1
    36    33    32   ar
    37    83    82    2
    38    38    39    1
    39    39    40    1
    40    34    32   ar
    41    87    85   am
    42    82    81    1
    43    32    31    1
    44    84    85    1
    45    84    81    1
    46    52    51    2
    47    85    86    2
    48    40    41    2
    49    81    80    1
    50    54    53    1
    51    54    55    1
    52    51    53   am
    53    51    50    1
    54   131   129   ar
    55   131   132   ar
    56    31    28    1
    57    29    28    1
    58    29    30    1
    59   129   128   ar
    60    28    27    1
    61    50    49    1
    62    56    55    2
    63    80    71   am
    64   132   130   ar
    65   128   130   ar
    66   128   127    1
    67    72    71    2
    68    71    70    1
    69   127   124    1
    70   123   124    1
    71    14    13    1
    72    13    10    1
    73    67    66    2
    74    66    68   am
    75    66    65    1
    76   124   125    1
    77   126   125    1
    78    65    62    1
    79    64    63    2
    80    70    69    1
    81    70    73    1
    82    10     9    1
    83    10    11    1
    84    62    63    1
    85    62    61    1
    86    76    78   ar
    87    76    74   ar
    88    78    79   ar
    89     9     3   am
    90    12    11    2
    91    73    74    1
    92    11    15   am
    93    26    25    1
    94    74    75   ar
    95    23    25   ar
    96    23    21   ar
    97    61    59   am
    98     3     4    2
    99     3     2    1
   100    79    77   ar
   101    60    59    2
   102    25    24   ar
   103     2     5    1
   104     2     1    1
   105    75    77   ar
   106     5     6    1
   107    59    58    1
   108    21    20   ar
   109    15    16    1
   110    24    22   ar
   111     6     8   ar
   112     6     7   ar
   113    20    22   ar
   114    20    19    1
   115    16    19    1
   116    16    17    1
   117    58    57    1
   118    17    18    2
   119   119   117   ar
   120   119   121   ar
   121   122   121    1
   122   117   116   ar
   123   121   120   ar
   124   116   115    1
   125   116   118   ar
   126   120   118   ar
   127   115   112    1
   128   112   113    1
   129   112   111    1
   130   113   114    2
