@<TRIPOS>MOLECULE
tmp/1esnA00.pdb
 178 169 0 0 0
SMALL
GASTEIGER

@<TRIPOS>ATOM
      1  N          7.1280   62.1650    6.6070 N.3    36  ASN36      -0.1240
      2  CA         6.5110   63.4660    6.3790 C.3    36  ASN36       0.1653
      3  C          7.2040   64.6510    7.0350 C.2    36  ASN36       0.2266
      4  O          7.1520   65.7600    6.5170 O.2    36  ASN36      -0.2867
      5  CB         5.0430   63.4540    6.7980 C.3    36  ASN36       0.1155
      6  CG         4.2680   64.6080    6.1940 C.2    36  ASN36       0.2627
      7  OD1        4.6080   65.7660    6.4090 O.2    36  ASN36      -0.2716
      8  ND2        3.2290   64.2970    5.4300 N.am   36  ASN36      -0.0877
      9  N          6.4510   66.7690    8.7020 N.3    38  ASP38      -0.1225
     10  CA         5.5030   67.8310    9.0430 C.3    38  ASP38       0.1805
     11  C          4.6060   67.2040   10.0880 C.2    38  ASP38       0.2597
     12  O          3.7810   67.8640   10.7320 O.2    38  ASP38      -0.2718
     13  CB         4.6660   68.2290    7.8380 C.3    38  ASP38       0.1424
     14  CG         5.1360   69.5060    7.2280 C.2    38  ASP38       0.3668
     15  OD1        6.3560   69.7720    7.3240 O.co2  38  ASP38      -0.2456
     16  OD2        4.2950   70.2390    6.6630 O.co2  38  ASP38      -0.2456
     17  N          4.7900   65.8960   10.2220 N.am   39  LEU39      -0.1979
     18  CA         4.0680   65.0840   11.1720 C.3    39  LEU39       0.1596
     19  C          4.8160   65.1860   12.4970 C.2    39  LEU39       0.2287
     20  O          6.0090   64.8920   12.5630 O.2    39  LEU39      -0.2864
     21  CB         4.0510   63.6380   10.6840 C.3    39  LEU39       0.0297
     22  CG         3.2370   62.6910   11.5450 C.3    39  LEU39       0.0022
     23  CD1        1.9010   63.3320   11.8660 C.3    39  LEU39       0.0001
     24  CD2        3.0540   61.3870   10.8120 C.3    39  LEU39       0.0001
     25  N          1.8500   63.9240   17.6120 N.3    43  GLU43      -0.1245
     26  CA         0.6660   63.5490   16.8370 C.3    43  GLU43       0.1567
     27  C          0.6620   62.0420   16.6030 C.2    43  GLU43       0.2260
     28  O         -0.3740   61.3880   16.6960 O.2    43  GLU43      -0.2867
     29  CB         0.6430   64.2720   15.4870 C.3    43  GLU43       0.0388
     30  CG        -0.4580   63.7900   14.5510 C.3    43  GLU43       0.1160
     31  CD        -1.8420   64.2990   14.9350 C.2    43  GLU43       0.3649
     32  OE1       -2.8010   64.0490   14.1780 O.co2  43  GLU43      -0.2457
     33  OE2       -1.9800   64.9490   15.9890 O.co2  43  GLU43      -0.2457
     34  N         -1.9270   58.0230   15.8410 N.3    48  TYR48      -0.1241
     35  CA        -1.6080   56.8410   15.0530 C.3    48  TYR48       0.1605
     36  C         -1.0690   55.6360   15.8310 C.2    48  TYR48       0.2264
     37  O         -1.3380   54.4870   15.4550 O.2    48  TYR48      -0.2867
     38  CB        -0.6660   57.2420   13.9070 C.3    48  TYR48       0.0534
     39  CG        -1.1730   58.4580   13.1450 C.ar   48  TYR48      -0.0201
     40  CD1       -0.6400   59.7230   13.3810 C.ar   48  TYR48      -0.0009
     41  CD2       -2.2380   58.3530   12.2390 C.ar   48  TYR48      -0.0009
     42  CE1       -1.1550   60.8550   12.7400 C.ar   48  TYR48       0.0417
     43  CE2       -2.7610   59.4810   11.5930 C.ar   48  TYR48       0.0417
     44  CZ        -2.2170   60.7300   11.8520 C.ar   48  TYR48       0.1957
     45  OH        -2.7330   61.8690   11.2540 O.3    48  TYR48      -0.2866
     46  N         -8.3450   64.7330   -2.2750 N.3    90  VAL90      -0.1231
     47  CA        -6.9690   65.0270   -2.6520 C.3    90  VAL90       0.1692
     48  C         -6.2060   65.7680   -1.5580 C.2    90  VAL90       0.2592
     49  O         -6.7780   66.5980   -0.8560 O.2    90  VAL90      -0.2718
     50  CB        -6.9330   65.8570   -3.9600 C.3    90  VAL90       0.0266
     51  CG1       -5.6450   66.6680   -4.0510 C.3    90  VAL90       0.0020
     52  CG2       -7.0660   64.9300   -5.1530 C.3    90  VAL90       0.0020
     53  N         -4.9170   65.4480   -1.4230 N.am   91  ALA91      -0.1966
     54  CA        -4.0170   66.0660   -0.4450 C.3    91  ALA91       0.1728
     55  C         -4.5570   66.0410    0.9780 C.2    91  ALA91       0.2616
     56  O         -4.2600   66.9170    1.7910 O.2    91  ALA91      -0.2715
     57  CB        -3.7170   67.4950   -0.8580 C.3    91  ALA91       0.0334
     58  N         -5.3470   65.0200    1.2710 N.am   92  VAL92      -0.1963
     59  CA        -5.9590   64.8580    2.5820 C.3    92  VAL92       0.1727
     60  C         -5.0040   64.1620    3.5580 C.2    92  VAL92       0.2617
     61  O         -5.1670   64.2540    4.7730 O.2    92  VAL92      -0.2715
     62  CB        -7.2830   64.0560    2.4440 C.3    92  VAL92       0.0290
     63  CG1       -7.0710   62.5870    2.8040 C.3    92  VAL92       0.0023
     64  CG2       -8.3510   64.6970    3.2870 C.3    92  VAL92       0.0023
     65  N         -4.0000   63.4810    3.0140 N.am   93  GLY93      -0.1940
     66  CA        -3.0430   62.7830    3.8490 C.3    93  GLY93       0.2014
     67  C         -3.1890   61.2760    3.7220 C.2    93  GLY93       0.2639
     68  O         -2.7960   60.5290    4.6180 O.2    93  GLY93      -0.2714
     69  N         -3.7620   60.8190    2.6130 N.am   94  LYS94      -0.1963
     70  CA        -3.9330   59.3930    2.3970 C.3    94  LYS94       0.1728
     71  C         -2.5750   58.6940    2.4300 C.2    94  LYS94       0.2617
     72  O         -2.3670   57.7460    3.1830 O.2    94  LYS94      -0.2715
     73  CB        -4.5970   59.1430    1.0470 C.3    94  LYS94       0.0311
     74  CG        -6.0650   59.5190    0.9840 C.3    94  LYS94       0.0038
     75  CD        -6.5870   59.3830   -0.4360 C.3    94  LYS94       0.0206
     76  CE        -5.6260   60.0090   -1.4390 C.3    94  LYS94       0.1093
     77  NZ        -5.9080   61.4600   -1.6190 N.3    94  LYS94      -0.1314
     78  N         -1.6450   59.1780    1.6140 N.am   95  SER95      -0.1936
     79  CA        -0.3120   58.5890    1.5300 C.3    95  SER95       0.2055
     80  C          0.4020   58.5440    2.8630 C.2    95  SER95       0.2644
     81  O          0.9000   57.4930    3.2720 O.2    95  SER95      -0.2714
     82  CB         0.5350   59.3610    0.5220 C.3    95  SER95       0.2130
     83  OG         0.3100   58.8510   -0.7760 O.3    95  SER95      -0.2179
     84  N          0.4620   59.6950    3.5240 N.am   96  THR96      -0.1936
     85  CA         1.1010   59.8270    4.8350 C.3    96  THR96       0.2028
     86  C          0.5570   58.8150    5.8480 C.2    96  THR96       0.2642
     87  O          1.3170   58.0860    6.4790 O.2    96  THR96      -0.2714
     88  CB         0.8770   61.2290    5.4080 C.3    96  THR96       0.1808
     89  OG1        1.5600   62.1880    4.5940 O.3    96  THR96      -0.2208
     90  CG2        1.3840   61.3050    6.8310 C.3    96  THR96       0.0379
     91  N         -0.7610   58.7870    6.0090 N.am   97  THR97      -0.1950
     92  CA        -1.3920   57.8620    6.9360 C.3    97  THR97       0.1897
     93  C         -1.0130   56.4350    6.6090 C.2    97  THR97       0.2313
     94  O         -0.6340   55.6760    7.4850 O.2    97  THR97      -0.2863
     95  CB        -2.9120   57.9730    6.8730 C.3    97  THR97       0.1794
     96  OG1       -3.2850   59.3540    6.9530 O.3    97  THR97      -0.2208
     97  CG2       -3.5470   57.1980    8.0180 C.3    97  THR97       0.0378
     98  N         -3.1490   55.1850   -7.3540 N.3   120  ASP120     -0.1239
     99  CA        -2.7640   55.9940   -8.5150 C.3   120  ASP120      0.1674
    100  C         -2.2050   55.1630   -9.6620 C.2   120  ASP120      0.2266
    101  O         -2.4120   55.4850  -10.8320 O.2   120  ASP120     -0.2867
    102  CB        -1.7140   57.0300   -8.1310 C.3   120  ASP120      0.1410
    103  CG        -2.2360   58.0500   -7.1590 C.2   120  ASP120      0.3668
    104  OD1       -3.4760   58.1550   -7.0220 O.co2 120  ASP120     -0.2456
    105  OD2       -1.3980   58.7420   -6.5320 O.co2 120  ASP120     -0.2456
    106  N          5.3860   60.1050   -9.4590 N.3   168  HIS168     -0.1241
    107  CA         5.0860   61.4740   -9.0690 C.3   168  HIS168      0.1621
    108  C          6.0730   62.4370   -9.7080 C.2   168  HIS168      0.2264
    109  O          6.0430   63.6370   -9.4430 O.2   168  HIS168     -0.2867
    110  CB         5.1120   61.5940   -7.5450 C.3   168  HIS168      0.0745
    111  CG         4.0660   60.7620   -6.8670 C.ar  168  HIS168      0.0817
    112  ND1        4.3700   59.6470   -6.1120 N.ar  168  HIS168     -0.2268
    113  CD2        2.7140   60.8580   -6.8670 C.ar  168  HIS168      0.1154
    114  CE1        3.2500   59.0920   -5.6790 C.ar  168  HIS168      0.1986
    115  NE2        2.2310   59.8070   -6.1230 N.ar  168  HIS168     -0.2212
    116  N         -3.9430   52.5210   -0.3710 N.3   190  GLU190     -0.1245
    117  CA        -4.2850   53.9440   -0.2940 C.3   190  GLU190      0.1567
    118  C         -4.7450   54.4910   -1.6450 C.2   190  GLU190      0.2260
    119  O         -4.1230   54.2370   -2.6620 O.2   190  GLU190     -0.2867
    120  CB        -3.0770   54.7620    0.1760 C.3   190  GLU190      0.0388
    121  CG        -3.1720   56.2470   -0.1810 C.3   190  GLU190      0.1160
    122  CD        -1.9380   56.7650   -0.8920 C.2   190  GLU190      0.3649
    123  OE1       -0.9620   55.9850   -1.0030 O.co2 190  GLU190     -0.2457
    124  OE2       -1.9550   57.9470   -1.3340 O.co2 190  GLU190     -0.2457
    125  N         -8.0200   57.3540   -3.6630 N.3   192  LEU192     -0.1245
    126  CA        -9.2570   58.1270   -3.5770 C.3   192  LEU192      0.1561
    127  C        -10.4920   57.2450   -3.6920 C.2   192  LEU192      0.2260
    128  O        -11.4980   57.4820   -3.0300 O.2   192  LEU192     -0.2867
    129  CB        -9.3220   59.1500   -4.7140 C.3   192  LEU192      0.0270
    130  CG        -8.7180   60.5490   -4.5710 C.3   192  LEU192      0.0019
    131  CD1       -7.2030   60.4740   -4.3710 C.3   192  LEU192      0.0001
    132  CD2       -9.0450   61.3360   -5.8290 C.3   192  LEU192      0.0001
    133  N         -2.9790   74.2320   -2.2040 N.3   232  ASN232     -0.1225
    134  CA        -1.5750   74.1290   -1.8320 C.3   232  ASN232      0.1785
    135  C         -0.8350   73.0680   -2.6410 C.2   232  ASN232      0.2597
    136  O          0.2880   73.2980   -3.0780 O.2   232  ASN232     -0.2718
    137  CB        -1.4330   73.8210   -0.3430 C.3   232  ASN232      0.1169
    138  CG         0.0040   73.9510    0.1400 C.2   232  ASN232      0.2627
    139  OD1        0.5960   72.9780    0.6070 O.2   232  ASN232     -0.2716
    140  ND2        0.5750   75.1560    0.0210 N.am  232  ASN232     -0.0877
    141  N         -1.4510   71.9050   -2.8350 N.am  233  ARG233     -0.1979
    142  CA        -0.8100   70.8460   -3.6170 C.3   233  ARG233      0.1597
    143  C         -0.5130   71.3810   -5.0100 C.2   233  ARG233      0.2287
    144  O          0.6010   71.2470   -5.5190 O.2   233  ARG233     -0.2864
    145  CB        -1.7130   69.6110   -3.7400 C.3   233  ARG233      0.0334
    146  CG        -1.0340   68.4340   -4.4580 C.3   233  ARG233      0.0492
    147  CD        -1.9560   67.2370   -4.6140 C.3   233  ARG233      0.2205
    148  NE        -2.9070   67.4280   -5.7060 N.pl3 233  ARG233     -0.0865
    149  CZ        -3.3360   66.4600   -6.5170 C.cat 233  ARG233      0.5346
    150  NH1       -2.9020   65.2150   -6.3720 N.pl3 233  ARG233      0.1354
    151  NH2       -4.2040   66.7390   -7.4820 N.pl3 233  ARG233      0.1354
    152  N         -9.8820   65.6230   10.4120 N.3   292  LYS292     -0.1245
    153  CA        -8.7460   66.5220   10.6450 C.3   292  LYS292      0.1561
    154  C         -9.1020   67.9920   10.7720 C.2   292  LYS292      0.2260
    155  O        -10.1760   68.4220   10.3480 O.2   292  LYS292     -0.2867
    156  CB        -7.7330   66.3940    9.5100 C.3   292  LYS292      0.0271
    157  CG        -7.1750   65.0090    9.2940 C.3   292  LYS292      0.0035
    158  CD        -5.7040   65.0990    8.9300 C.3   292  LYS292      0.0206
    159  CE        -5.2840   63.9410    8.0460 C.3   292  LYS292      0.1093
    160  NZ        -3.9770   64.1980    7.3830 N.3   292  LYS292     -0.1314
    161  N         -4.6130   72.0630   10.4010 N.3   295  ASN295     -0.1225
    162  CA        -3.2100   71.6770   10.2830 C.3   295  ASN295      0.1785
    163  C         -2.9680   70.1770   10.2680 C.2   295  ASN295      0.2597
    164  O         -1.9220   69.7050   10.7020 O.2   295  ASN295     -0.2718
    165  CB        -2.3960   72.3250   11.4070 C.3   295  ASN295      0.1169
    166  CG        -2.2040   73.8210   11.2020 C.2   295  ASN295      0.2627
    167  OD1       -1.7380   74.2530   10.1530 O.2   295  ASN295     -0.2716
    168  ND2       -2.5650   74.6160   12.2060 N.am  295  ASN295     -0.0877
    169  N         -3.9410   69.4330    9.7640 N.am  296  HIS296     -0.1975
    170  CA        -3.8420   67.9860    9.6760 C.3   296  HIS296      0.1656
    171  C         -3.8630   67.2480   11.0190 C.2   296  HIS296      0.2291
    172  O         -3.6720   66.0260   11.0810 O.2   296  HIS296     -0.2864
    173  CB        -2.6080   67.6130    8.8600 C.3   296  HIS296      0.0771
    174  CG        -2.7940   67.8070    7.3860 C.ar  296  HIS296      0.0820
    175  ND1       -3.3900   66.8590    6.5810 N.ar  296  HIS296     -0.2267
    176  CD2       -2.5050   68.8560    6.5810 C.ar  296  HIS296      0.1154
    177  CE1       -3.4610   67.3170    5.3440 C.ar  296  HIS296      0.1986
    178  NE2       -2.9310   68.5260    5.3170 N.ar  296  HIS296     -0.2212
@<TRIPOS>BOND
     1   101   100    2
     2   108   109    2
     3   108   107    1
     4   100    99    1
     5   106   107    1
     6   107   110    1
     7    99   102    1
     8    99    98    1
     9   102   103    1
    10   110   111    1
    11   151   149    1
    12   103   104   ar
    13   103   105   ar
    14   113   111   ar
    15   113   115   ar
    16   111   112   ar
    17   149   150    1
    18   149   148    2
    19   115   114   ar
    20   112   114   ar
    21   132   130    1
    22   148   147    1
    23   144   143    2
    24    52    50    1
    25   143   142    1
    26   129   130    1
    27   129   126    1
    28   147   146    1
    29   130   131    1
    30   146   145    1
    31    51    50    1
    32    50    47    1
    33   145   142    1
    34   127   126    1
    35   127   128    2
    36   125   126    1
    37   142   141    1
    38   136   135    2
    39   141   135   am
    40   119   118    2
    41    47    46    1
    42    47    48    1
    43   135   134    1
    44   133   134    1
    45   134   137    1
    46   118   117    1
    47    77    76    1
    48    48    53   am
    49    48    49    2
    50    76    75    1
    51    53    54    1
    52   124   122   ar
    53   123   122   ar
    54   122   121    1
    55    57    54    1
    56    83    82    1
    57    54    55    1
    58    75    74    1
    59   116   117    1
    60   137   138    1
    61   117   120    1
    62   121   120    1
    63   140   138   am
    64   138   139    2
    65    82    79    1
    66    55    58   am
    67    55    56    2
    68    74    73    1
    69    73    70    1
    70    58    59    1
    71    79    78    1
    72    79    80    1
    73    78    71   am
    74    70    71    1
    75    70    69    1
    76    71    72    2
    77    62    59    1
    78    62    63    1
    79    62    64    1
    80    59    60    1
    81    69    67   am
    82    80    81    2
    83    80    84   am
    84    65    60   am
    85    65    66    1
    86    84    85    1
    87    60    61    2
    88    67    66    1
    89    67    68    2
    90    89    88    1
    91    85    88    1
    92    85    86    1
    93   178   177   ar
    94   178   176   ar
    95   177   175   ar
    96    88    90    1
    97     8     6   am
    98    86    91   am
    99    86    87    2
   100    91    92    1
   101     6     7    2
   102     6     5    1
   103     2     1    1
   104     2     5    1
   105     2     3    1
   106     4     3    2
   107   175   174   ar
   108   176   174   ar
   109    93    92    1
   110    93    94    2
   111    16    14   ar
   112    95    92    1
   113    95    96    1
   114    95    97    1
   115    14    15   ar
   116    14    13    1
   117   160   159    1
   118   174   173    1
   119    13    10    1
   120   159   158    1
   121     9    10    1
   122   173   170    1
   123   158   157    1
   124    10    11    1
   125   157   156    1
   126   156   153    1
   127   170   169    1
   128   170   171    1
   129   169   163   am
   130    11    17   am
   131    11    12    2
   132   167   166    2
   133    17    18    1
   134   163   162    1
   135   163   164    2
   136   162   161    1
   137   162   165    1
   138   155   154    2
   139   152   153    1
   140   153   154    1
   141    21    18    1
   142    21    22    1
   143    24    22    1
   144   171   172    2
   145    18    19    1
   146   166   165    1
   147   166   168   am
   148    45    44    1
   149    22    23    1
   150    43    44   ar
   151    43    41   ar
   152    44    42   ar
   153    41    39   ar
   154    19    20    2
   155    42    40   ar
   156    39    40   ar
   157    39    38    1
   158    38    35    1
   159    32    31   ar
   160    30    31    1
   161    30    29    1
   162    31    33   ar
   163    35    36    1
   164    35    34    1
   165    37    36    2
   166    29    26    1
   167    27    28    2
   168    27    26    1
   169    26    25    1
