@<TRIPOS>MOLECULE
tmp/1esqC00.pdb
 169 157 0 0 0
SMALL
GASTEIGER

@<TRIPOS>ATOM
      1  N         23.2980   -3.5340   38.4790 N.3   106  ASP106     -0.1239
      2  CA        24.1690   -2.3680   38.5170 C.3   106  ASP106      0.1674
      3  C         23.3900   -1.2620   37.8040 C.2   106  ASP106      0.2266
      4  O         23.4220   -1.1680   36.5800 O.2   106  ASP106     -0.2867
      5  CB        25.4740   -2.6600   37.7750 C.3   106  ASP106      0.1410
      6  CG        26.4860   -1.5450   37.9160 C.2   106  ASP106      0.3668
      7  OD1       26.0550   -0.3760   38.0430 O.co2 106  ASP106     -0.2456
      8  OD2       27.7040   -1.8350   37.8840 O.co2 106  ASP106     -0.2456
      9  N         23.4850    1.5710   36.4460 N.3   108  VAL108     -0.1245
     10  CA        24.3280    2.5920   35.8350 C.3   108  VAL108      0.1561
     11  C         23.5460    3.7560   35.2450 C.2   108  VAL108      0.2260
     12  O         22.8480    3.5940   34.2540 O.2   108  VAL108     -0.2867
     13  CB        25.1960    1.9890   34.7060 C.3   108  VAL108      0.0252
     14  CG1       26.1690    3.0410   34.1830 C.3   108  VAL108      0.0019
     15  CG2       25.9250    0.7380   35.2120 C.3   108  VAL108      0.0019
     16  N         24.4750   -2.9110   43.1500 N.3   133  ARG133     -0.1245
     17  CA        25.6620   -2.0950   43.3640 C.3   133  ARG133      0.1563
     18  C         25.6740   -0.8720   42.4600 C.2   133  ARG133      0.2260
     19  O         25.3670   -0.9590   41.2720 O.2   133  ARG133     -0.2867
     20  CB        26.9360   -2.9060   43.1240 C.3   133  ARG133      0.0307
     21  CG        28.1740   -2.1960   43.6610 C.3   133  ARG133      0.0489
     22  CD        29.3780   -2.3690   42.7620 C.3   133  ARG133      0.2205
     23  NE        29.1890   -1.7540   41.4530 N.pl3 133  ARG133     -0.0865
     24  CZ        29.1790   -0.4420   41.2220 C.cat 133  ARG133      0.5346
     25  NH1       29.3520    0.4240   42.2200 N.pl3 133  ARG133      0.1354
     26  NH2       28.9990    0.0080   39.9830 N.pl3 133  ARG133      0.1354
     27  N         26.6110    3.8470   42.6580 N.3   135  ASN135     -0.1240
     28  CA        27.0170    4.9290   43.5300 C.3   135  ASN135      0.1653
     29  C         25.8270    5.4790   44.3150 C.2   135  ASN135      0.2266
     30  O         24.6770    5.0830   44.0960 O.2   135  ASN135     -0.2867
     31  CB        27.7450    6.0290   42.7430 C.3   135  ASN135      0.1155
     32  CG        26.8520    6.7470   41.7540 C.2   135  ASN135      0.2627
     33  OD1       27.3370    7.3080   40.7740 O.2   135  ASN135     -0.2716
     34  ND2       25.5560    6.7540   42.0110 N.am  135  ASN135     -0.0877
     35  N         22.8080    6.9260   42.0800 N.3   138  GLU138     -0.1245
     36  CA        22.0970    5.8930   41.3250 C.3   138  GLU138      0.1567
     37  C         21.2240    5.0870   42.2850 C.2   138  GLU138      0.2260
     38  O         20.0480    4.8530   42.0250 O.2   138  GLU138     -0.2867
     39  CB        23.1030    4.9890   40.6010 C.3   138  GLU138      0.0388
     40  CG        24.0890    5.7750   39.7260 C.3   138  GLU138      0.1160
     41  CD        25.2710    4.9440   39.2350 C.2   138  GLU138      0.3649
     42  OE1       25.6840    3.9960   39.9400 O.co2 138  GLU138     -0.2457
     43  OE2       25.8060    5.2550   38.1490 O.co2 138  GLU138     -0.2457
     44  N         29.1870    1.7930   46.6370 N.3   170  THR170     -0.1203
     45  CA        30.6390    1.9540   46.6420 C.3   170  THR170      0.1994
     46  C         31.0690    3.4080   46.5540 C.2   170  THR170      0.2618
     47  O         30.2580    4.2900   46.2690 O.2   170  THR170     -0.2717
     48  CB        31.3140    1.1200   45.5090 C.3   170  THR170      0.1784
     49  OG1       30.7110    1.4110   44.2420 O.3   170  THR170     -0.2211
     50  CG2       31.1630   -0.3620   45.8050 C.3   170  THR170      0.0376
     51  N         32.3480    3.6480   46.8270 N.am  171  GLY171     -0.1942
     52  CA        32.9000    4.9930   46.8030 C.3   171  GLY171      0.2014
     53  C         34.1960    4.9930   47.5930 C.2   171  GLY171      0.2638
     54  O         34.7670    3.9260   47.8080 O.2   171  GLY171     -0.2714
     55  N         34.6690    6.1660   48.0170 N.am  172  GLU172     -0.1977
     56  CA        35.9080    6.2370   48.7910 C.3   172  GLU172      0.1602
     57  C         35.7340    5.2920   49.9680 C.2   172  GLU172      0.2287
     58  O         36.6440    4.5600   50.3430 O.2   172  GLU172     -0.2864
     59  CB        36.1730    7.6670   49.2660 C.3   172  GLU172      0.0415
     60  CG        37.4690    7.8260   50.0600 C.3   172  GLU172      0.1163
     61  CD        37.8200    9.2820   50.3350 C.2   172  GLU172      0.3649
     62  OE1       36.8930   10.0740   50.6110 O.co2 172  GLU172     -0.2457
     63  OE2       39.0220    9.6300   50.2850 O.co2 172  GLU172     -0.2457
     64  N         32.9840    2.3360   51.3690 N.3   174  ASP174     -0.1239
     65  CA        31.8910    1.5200   50.8660 C.3   174  ASP174      0.1674
     66  C         30.8990    1.1950   51.9590 C.2   174  ASP174      0.2266
     67  O         31.2880    0.8740   53.0770 O.2   174  ASP174     -0.2867
     68  CB        32.4550    0.2290   50.2630 C.3   174  ASP174      0.1410
     69  CG        33.5190    0.4980   49.2130 C.2   174  ASP174      0.3668
     70  OD1       33.1670    0.9870   48.1200 O.co2 174  ASP174     -0.2456
     71  OD2       34.7090    0.2360   49.4870 O.co2 174  ASP174     -0.2456
     72  N         39.0140   -0.1780   51.4870 N.3   187  ASN187     -0.1225
     73  CA        40.0540   -0.6170   50.5790 C.3   187  ASN187      0.1785
     74  C         39.8890    0.0350   49.2080 C.2   187  ASN187      0.2598
     75  O         38.9040    0.7470   48.9650 O.2   187  ASN187     -0.2718
     76  CB        40.0100   -2.1360   50.4600 C.3   187  ASN187      0.1169
     77  CG        40.4970   -2.8250   51.7190 C.2   187  ASN187      0.2627
     78  OD1       41.6940   -2.8130   52.0190 O.2   187  ASN187     -0.2716
     79  ND2       39.5730   -3.4200   52.4680 N.am  187  ASN187     -0.0877
     80  N         40.8600   -0.2040   48.3280 N.am  188  GLY188     -0.1942
     81  CA        40.8160    0.3500   46.9880 C.3   188  GLY188      0.2014
     82  C         41.7650    1.5210   46.8030 C.2   188  GLY188      0.2639
     83  O         42.5960    1.8030   47.6700 O.2   188  GLY188     -0.2714
     84  N         41.6470    2.2030   45.6670 N.am  189  HIS189     -0.1959
     85  CA        42.4920    3.3540   45.3680 C.3   189  HIS189      0.1787
     86  C         41.7210    4.3660   44.5200 C.2   189  HIS189      0.2620
     87  O         40.8130    3.9960   43.7790 O.2   189  HIS189     -0.2715
     88  CB        43.7420    2.9150   44.6180 C.3   189  HIS189      0.0785
     89  CG        44.7180    4.0230   44.3790 C.ar  189  HIS189      0.0821
     90  ND1       45.7030    4.3560   45.2840 N.ar  189  HIS189     -0.2267
     91  CD2       44.8480    4.8870   43.3460 C.ar  189  HIS189      0.1154
     92  CE1       46.3980    5.3780   44.8180 C.ar  189  HIS189      0.1986
     93  NE2       45.8980    5.7180   43.6430 N.ar  189  HIS189     -0.2212
     94  N         42.0930    5.6370   44.6280 N.am  190  LYS190     -0.1977
     95  CA        41.4270    6.7020   43.8890 C.3   190  LYS190      0.1596
     96  C         41.5200    6.5650   42.3640 C.2   190  LYS190      0.2287
     97  O         40.7250    7.1590   41.6370 O.2   190  LYS190     -0.2864
     98  CB        41.9920    8.0610   44.3190 C.3   190  LYS190      0.0298
     99  CG        41.2140    9.2490   43.7690 C.3   190  LYS190      0.0038
    100  CD        41.8510   10.5760   44.1490 C.3   190  LYS190      0.0206
    101  CE        41.0390   11.7520   43.6130 C.3   190  LYS190      0.1093
    102  NZ        41.7650   13.0510   43.7620 N.3   190  LYS190     -0.1314
    103  N         40.7490    4.0630   40.5620 N.3   192  LEU192     -0.1231
    104  CA        39.6520    3.2710   40.0140 C.3   192  LEU192      0.1693
    105  C         38.6160    4.2280   39.4310 C.2   192  LEU192      0.2592
    106  O         37.7380    3.8250   38.6570 O.2   192  LEU192     -0.2718
    107  CB        39.0100    2.4030   41.1090 C.3   192  LEU192      0.0284
    108  CG        39.8430    1.2260   41.6330 C.3   192  LEU192      0.0019
    109  CD1       39.1590    0.5820   42.8250 C.3   192  LEU192      0.0001
    110  CD2       40.0470    0.2030   40.5120 C.3   192  LEU192      0.0001
    111  N         38.7130    5.5010   39.8090 N.am  193  THR193     -0.1953
    112  CA        37.7820    6.4970   39.2960 C.3   193  THR193      0.1897
    113  C         38.1900    6.8980   37.8690 C.2   193  THR193      0.2313
    114  O         37.4060    7.4990   37.1320 O.2   193  THR193     -0.2863
    115  CB        37.7170    7.7710   40.2210 C.3   193  THR193      0.1794
    116  OG1       38.9760    8.4570   40.2190 O.3   193  THR193     -0.2208
    117  CG2       37.3740    7.3790   41.6550 C.3   193  THR193      0.0378
    118  N         39.1920    4.6590   35.4510 N.3   195  VAL195     -0.1245
    119  CA        39.0620    3.5300   34.5460 C.3   195  VAL195      0.1561
    120  C         37.5820    3.2750   34.3080 C.2   195  VAL195      0.2260
    121  O         36.8160    3.1230   35.2540 O.2   195  VAL195     -0.2867
    122  CB        39.7040    2.2690   35.1510 C.3   195  VAL195      0.0252
    123  CG1       39.6250    1.0980   34.1720 C.3   195  VAL195      0.0019
    124  CG2       41.1470    2.5620   35.5150 C.3   195  VAL195      0.0019
    125  N         34.3420    1.2530   33.5690 N.3   197  GLY197     -0.1210
    126  CA        34.0150   -0.1310   33.8480 C.3   197  GLY197      0.1956
    127  C         34.4860   -0.6200   35.2060 C.2   197  GLY197      0.2612
    128  O         34.0840   -1.7030   35.6320 O.2   197  GLY197     -0.2717
    129  N         35.3340    0.1550   35.8840 N.am  198  ALA198     -0.1965
    130  CA        35.8170   -0.2320   37.2100 C.3   198  ALA198      0.1728
    131  C         34.6430   -0.7390   38.0400 C.2   198  ALA198      0.2616
    132  O         34.7350   -1.7720   38.7020 O.2   198  ALA198     -0.2715
    133  CB        36.4640    0.9520   37.9050 C.3   198  ALA198      0.0334
    134  N         33.5330   -0.0100   37.9920 N.am  199  GLY199     -0.1955
    135  CA        32.3510   -0.4250   38.7260 C.3   199  GLY199      0.1869
    136  C         31.5910   -1.5840   38.0930 C.2   199  GLY199      0.2309
    137  O         31.0860   -2.4490   38.8030 O.2   199  GLY199     -0.2863
    138  N         33.3690   -4.5620   38.8950 N.3   202  LEU202     -0.1245
    139  CA        33.1480   -4.8910   40.2930 C.3   202  LEU202      0.1561
    140  C         31.8120   -5.5720   40.5040 C.2   202  LEU202      0.2260
    141  O         31.7280   -6.5540   41.2310 O.2   202  LEU202     -0.2867
    142  CB        33.2130   -3.6430   41.1700 C.3   202  LEU202      0.0270
    143  CG        32.8710   -3.9430   42.6270 C.3   202  LEU202      0.0019
    144  CD1       33.7960   -5.0350   43.1590 C.3   202  LEU202      0.0001
    145  CD2       33.0090   -2.6860   43.4560 C.3   202  LEU202      0.0001
    146  N         34.0480   -6.9860   47.0590 N.3   224  ILE224     -0.1245
    147  CA        34.5530   -5.6170   47.0330 C.3   224  ILE224      0.1561
    148  C         35.9040   -5.4570   47.7350 C.2   224  ILE224      0.2260
    149  O         36.7390   -4.6550   47.3050 O.2   224  ILE224     -0.2867
    150  CB        33.5110   -4.6520   47.6500 C.3   224  ILE224      0.0252
    151  CG1       32.2040   -4.7430   46.8540 C.3   224  ILE224      0.0019
    152  CG2       34.0200   -3.2150   47.6190 C.3   224  ILE224      0.0019
    153  CD1       31.0560   -3.9540   47.4390 C.3   224  ILE224      0.0001
    154  N         38.6120   -7.0220   45.5910 N.3   227  TYR227     -0.1227
    155  CA        38.7220   -6.0980   44.4620 C.3   227  TYR227      0.1736
    156  C         39.4950   -4.8380   44.8770 C.2   227  TYR227      0.2596
    157  O         40.3800   -4.3670   44.1490 O.2   227  TYR227     -0.2718
    158  CB        37.3220   -5.7180   43.9720 C.3   227  TYR227      0.0548
    159  CG        37.2950   -5.0170   42.6290 C.ar  227  TYR227     -0.0200
    160  CD1       37.5120   -5.7230   41.4420 C.ar  227  TYR227     -0.0009
    161  CD2       37.0320   -3.6480   42.5440 C.ar  227  TYR227     -0.0009
    162  CE1       37.4620   -5.0800   40.2080 C.ar  227  TYR227      0.0417
    163  CE2       36.9780   -3.0010   41.3170 C.ar  227  TYR227      0.0417
    164  CZ        37.1920   -3.7200   40.1510 C.ar  227  TYR227      0.1957
    165  OH        37.1160   -3.0700   38.9370 O.3   227  TYR227     -0.2866
    166  N         39.1580   -4.3090   46.0530 N.am  228  GLY228     -0.1957
    167  CA        39.8320   -3.1280   46.5600 C.3   228  GLY228      0.1869
    168  C         41.3040   -3.3680   46.8610 C.2   228  GLY228      0.2309
    169  O         42.1590   -2.5380   46.5290 O.2   228  GLY228     -0.2863
@<TRIPOS>BOND
     1   125   126    1
     2   126   127    1
     3   123   122    1
     4    14    13    1
     5    12    11    2
     6   120   119    1
     7   120   121    2
     8   119   122    1
     9   119   118    1
    10    13    15    1
    11    13    10    1
    12   122   124    1
    13   127   128    2
    14   127   129   am
    15    11    10    1
    16    10     9    1
    17   129   130    1
    18     4     3    2
    19   114   113    2
    20   130   133    1
    21   130   131    1
    22     5     6    1
    23     5     2    1
    24     3     2    1
    25   113   112    1
    26     8     6   ar
    27     6     7   ar
    28   134   131   am
    29   134   135    1
    30   131   132    2
    31   136   135    1
    32   136   137    2
    33    43    41   ar
    34     1     2    1
    35   106   105    2
    36   138   139    1
    37   165   164    1
    38    41    40    1
    39    41    42   ar
    40   112   111    1
    41   112   115    1
    42   105   111   am
    43   105   104    1
    44    40    39    1
    45    26    24    1
    46   104   103    1
    47   104   107    1
    48   164   162   ar
    49   164   163   ar
    50   162   160   ar
    51   116   115    1
    52   115   117    1
    53   139   140    1
    54   139   142    1
    55   140   141    2
    56   110   108    1
    57    39    36    1
    58    33    32    2
    59   107   108    1
    60   142   143    1
    61    24    23    2
    62    24    25    1
    63    19    18    2
    64   163   161   ar
    65    36    35    1
    66    36    37    1
    67   160   159   ar
    68    23    22    1
    69   108   109    1
    70    97    96    2
    71    32    34   am
    72    32    31    1
    73    38    37    2
    74    96    95    1
    75    18    17    1
    76   161   159   ar
    77   143   144    1
    78   143   145    1
    79   159   158    1
    80    27    28    1
    81    31    28    1
    82    22    21    1
    83    20    17    1
    84    20    21    1
    85    16    17    1
    86    91    93   ar
    87    91    89   ar
    88    28    29    1
    89   101   102    1
    90   101   100    1
    91    93    92   ar
    92    99   100    1
    93    99    98    1
    94    87    86    2
    95    95    98    1
    96    95    94    1
    97   158   155    1
    98    30    29    2
    99   157   156    2
   100    49    48    1
   101    89    88    1
   102    89    90   ar
   103   155   156    1
   104   155   154    1
   105    86    94   am
   106    86    85    1
   107    88    85    1
   108    92    90   ar
   109   156   166   am
   110    85    84    1
   111    48    50    1
   112    48    45    1
   113    84    82   am
   114   166   167    1
   115    47    46    2
   116   169   168    2
   117    46    45    1
   118    46    51   am
   119   167   168    1
   120    44    45    1
   121    82    81    1
   122    82    83    2
   123    52    51    1
   124    52    53    1
   125   151   153    1
   126   151   150    1
   127    81    80    1
   128   147   146    1
   129   147   150    1
   130   147   148    1
   131   149   148    2
   132    53    54    2
   133    53    55   am
   134   152   150    1
   135    55    56    1
   136    70    69   ar
   137    80    74   am
   138    56    59    1
   139    56    57    1
   140    75    74    2
   141    74    73    1
   142    69    71   ar
   143    69    68    1
   144    59    60    1
   145    57    58    2
   146    60    61    1
   147    68    65    1
   148    63    61   ar
   149    61    62   ar
   150    76    73    1
   151    76    77    1
   152    73    72    1
   153    65    64    1
   154    65    66    1
   155    77    78    2
   156    77    79   am
   157    66    67    2
