@<TRIPOS>MOLECULE
tmp/1esqC02.pdb
 112 103 0 0 0
SMALL
GASTEIGER

@<TRIPOS>ATOM
      1  N         26.6470   -3.2520   29.5090 N.3    37  ASN37      -0.1240
      2  CA        26.8140   -2.1860   28.5280 C.3    37  ASN37       0.1653
      3  C         28.0500   -2.4150   27.6580 C.2    37  ASN37       0.2266
      4  O         29.0430   -3.0060   28.1110 O.2    37  ASN37      -0.2867
      5  CB        26.8670   -0.8230   29.2310 C.3    37  ASN37       0.1155
      6  CG        28.1470   -0.6060   29.9980 C.2    37  ASN37       0.2627
      7  OD1       29.2150   -0.4620   29.4090 O.2    37  ASN37      -0.2716
      8  ND2       28.0470   -0.5750   31.3250 N.am   37  ASN37      -0.0877
      9  N         30.3730   -0.5330   26.7630 N.3    39  VAL39      -0.1231
     10  CA        31.5500    0.2810   27.0340 C.3    39  VAL39       0.1692
     11  C         32.5050   -0.5180   27.9350 C.2    39  VAL39       0.2591
     12  O         33.6890   -0.1930   28.0340 O.2    39  VAL39      -0.2718
     13  CB        31.2050    1.6040   27.7830 C.3    39  VAL39       0.0266
     14  CG1       32.5020    2.4020   28.0470 C.3    39  VAL39       0.0020
     15  CG2       30.2100    2.4410   26.9760 C.3    39  VAL39       0.0020
     16  N         31.9920   -1.5790   28.5570 N.am   40  VAL40      -0.1980
     17  CA        32.7880   -2.3580   29.4950 C.3    40  VAL40       0.1595
     18  C         32.8420   -3.8600   29.2280 C.2    40  VAL40       0.2287
     19  O         33.3160   -4.6210   30.0680 O.2    40  VAL40      -0.2864
     20  CB        32.2360   -2.1720   30.9200 C.3    40  VAL40       0.0276
     21  CG1       32.1940   -0.7020   31.2710 C.3    40  VAL40       0.0022
     22  CG2       30.8220   -2.7760   31.0120 C.3    40  VAL40       0.0022
     23  N         24.1230    0.2730   31.6290 N.3    79  GLY79      -0.1210
     24  CA        25.0150    1.3310   31.1750 C.3    79  GLY79       0.1956
     25  C         24.6780    1.9430   29.8150 C.2    79  GLY79       0.2612
     26  O         24.7490    3.1580   29.6600 O.2    79  GLY79      -0.2717
     27  N         24.3540    1.1140   28.8260 N.am   80  THR80      -0.1952
     28  CA        23.9760    1.5960   27.4900 C.3    80  THR80       0.1897
     29  C         22.7610    0.7770   27.0570 C.2    80  THR80       0.2313
     30  O         22.7370    0.1770   25.9820 O.2    80  THR80      -0.2863
     31  CB        25.1120    1.4080   26.4370 C.3    80  THR80       0.1794
     32  OG1       25.5440    0.0370   26.4230 O.3    80  THR80      -0.2208
     33  CG2       26.2840    2.3220   26.7440 C.3    80  THR80       0.0378
     34  N         23.2980   -3.5340   38.4790 N.3   106  ASP106     -0.1239
     35  CA        24.1690   -2.3680   38.5170 C.3   106  ASP106      0.1674
     36  C         23.3900   -1.2620   37.8040 C.2   106  ASP106      0.2266
     37  O         23.4220   -1.1680   36.5800 O.2   106  ASP106     -0.2867
     38  CB        25.4740   -2.6600   37.7750 C.3   106  ASP106      0.1410
     39  CG        26.4860   -1.5450   37.9160 C.2   106  ASP106      0.3668
     40  OD1       26.0550   -0.3760   38.0430 O.co2 106  ASP106     -0.2456
     41  OD2       27.7040   -1.8350   37.8840 O.co2 106  ASP106     -0.2456
     42  N         23.4850    1.5710   36.4460 N.3   108  VAL108     -0.1245
     43  CA        24.3280    2.5920   35.8350 C.3   108  VAL108      0.1561
     44  C         23.5460    3.7560   35.2450 C.2   108  VAL108      0.2260
     45  O         22.8480    3.5940   34.2540 O.2   108  VAL108     -0.2867
     46  CB        25.1960    1.9890   34.7060 C.3   108  VAL108      0.0252
     47  CG1       26.1690    3.0410   34.1830 C.3   108  VAL108      0.0019
     48  CG2       25.9250    0.7380   35.2120 C.3   108  VAL108      0.0019
     49  N         16.5860    5.5430   32.3380 N.3   116  ARG116     -0.1245
     50  CA        17.4210    4.6570   33.1320 C.3   116  ARG116      0.1563
     51  C         16.7320    4.4040   34.4630 C.2   116  ARG116      0.2260
     52  O         16.7260    3.2800   34.9670 O.2   116  ARG116     -0.2867
     53  CB        18.8030    5.2820   33.3540 C.3   116  ARG116      0.0307
     54  CG        19.7940    4.9600   32.2350 C.3   116  ARG116      0.0489
     55  CD        20.9490    5.9280   32.1720 C.3   116  ARG116      0.2205
     56  NE        21.4830    5.9650   30.8160 N.pl3 116  ARG116     -0.0865
     57  CZ        22.5600    5.3030   30.4070 C.cat 116  ARG116      0.5346
     58  NH1       23.2410    4.5510   31.2580 N.pl3 116  ARG116      0.1354
     59  NH2       22.9410    5.3770   29.1390 N.pl3 116  ARG116      0.1354
     60  N         24.4750   -2.9110   43.1500 N.3   133  ARG133     -0.1245
     61  CA        25.6620   -2.0950   43.3640 C.3   133  ARG133      0.1563
     62  C         25.6740   -0.8720   42.4600 C.2   133  ARG133      0.2260
     63  O         25.3670   -0.9590   41.2720 O.2   133  ARG133     -0.2867
     64  CB        26.9360   -2.9060   43.1240 C.3   133  ARG133      0.0307
     65  CG        28.1740   -2.1960   43.6610 C.3   133  ARG133      0.0489
     66  CD        29.3780   -2.3690   42.7620 C.3   133  ARG133      0.2205
     67  NE        29.1890   -1.7540   41.4530 N.pl3 133  ARG133     -0.0865
     68  CZ        29.1790   -0.4420   41.2220 C.cat 133  ARG133      0.5346
     69  NH1       29.3520    0.4240   42.2200 N.pl3 133  ARG133      0.1354
     70  NH2       28.9990    0.0080   39.9830 N.pl3 133  ARG133      0.1354
     71  N         22.8080    6.9260   42.0800 N.3   138  GLU138     -0.1245
     72  CA        22.0970    5.8930   41.3250 C.3   138  GLU138      0.1567
     73  C         21.2240    5.0870   42.2850 C.2   138  GLU138      0.2260
     74  O         20.0480    4.8530   42.0250 O.2   138  GLU138     -0.2867
     75  CB        23.1030    4.9890   40.6010 C.3   138  GLU138      0.0388
     76  CG        24.0890    5.7750   39.7260 C.3   138  GLU138      0.1160
     77  CD        25.2710    4.9440   39.2350 C.2   138  GLU138      0.3649
     78  OE1       25.6840    3.9960   39.9400 O.co2 138  GLU138     -0.2457
     79  OE2       25.8060    5.2550   38.1490 O.co2 138  GLU138     -0.2457
     80  N         39.1920    4.6590   35.4510 N.3   195  VAL195     -0.1231
     81  CA        39.0620    3.5300   34.5460 C.3   195  VAL195      0.1692
     82  C         37.5820    3.2750   34.3080 C.2   195  VAL195      0.2593
     83  O         36.8160    3.1230   35.2540 O.2   195  VAL195     -0.2718
     84  CB        39.7040    2.2690   35.1510 C.3   195  VAL195      0.0266
     85  CG1       39.6250    1.0980   34.1720 C.3   195  VAL195      0.0020
     86  CG2       41.1470    2.5620   35.5150 C.3   195  VAL195      0.0020
     87  N         37.1810    3.2380   33.0410 N.am  196  THR196     -0.1939
     88  CA        35.7880    3.0100   32.7070 C.3   196  THR196      0.2028
     89  C         35.4910    1.5380   32.9720 C.2   196  THR196      0.2643
     90  O         36.3020    0.6730   32.6650 O.2   196  THR196     -0.2714
     91  CB        35.5060    3.3690   31.2200 C.3   196  THR196      0.1808
     92  OG1       34.0960    3.5230   31.0210 O.3   196  THR196     -0.2208
     93  CG2       36.0100    2.2740   30.2960 C.3   196  THR196      0.0379
     94  N         34.3420    1.2530   33.5690 N.am  197  GLY197     -0.1939
     95  CA        34.0150   -0.1310   33.8480 C.3   197  GLY197      0.2014
     96  C         34.4860   -0.6200   35.2060 C.2   197  GLY197      0.2639
     97  O         34.0840   -1.7030   35.6320 O.2   197  GLY197     -0.2714
     98  N         35.3340    0.1550   35.8840 N.am  198  ALA198     -0.1963
     99  CA        35.8170   -0.2320   37.2100 C.3   198  ALA198      0.1728
    100  C         34.6430   -0.7390   38.0400 C.2   198  ALA198      0.2617
    101  O         34.7350   -1.7720   38.7020 O.2   198  ALA198     -0.2715
    102  CB        36.4640    0.9520   37.9050 C.3   198  ALA198      0.0334
    103  N         33.5330   -0.0100   37.9920 N.am  199  GLY199     -0.1940
    104  CA        32.3510   -0.4250   38.7260 C.3   199  GLY199      0.2014
    105  C         31.5910   -1.5840   38.0930 C.2   199  GLY199      0.2639
    106  O         31.0860   -2.4490   38.8030 O.2   199  GLY199     -0.2714
    107  N         31.4890   -1.6020   36.7650 N.am  200  SER200     -0.1949
    108  CA        30.7760   -2.6810   36.0860 C.3   200  SER200      0.1924
    109  C         31.5350   -3.9770   36.2940 C.2   200  SER200      0.2314
    110  O         30.9400   -5.0530   36.4090 O.2   200  SER200     -0.2863
    111  CB        30.6520   -2.4060   34.5850 C.3   200  SER200      0.2116
    112  OG        29.8360   -1.2790   34.3310 O.3   200  SER200     -0.2180
@<TRIPOS>BOND
     1    30    29    2
     2    32    31    1
     3    31    33    1
     4    31    28    1
     5     9    10    1
     6    15    13    1
     7    10    13    1
     8    10    11    1
     9    29    28    1
    10    28    27    1
    11     3     4    2
    12     3     2    1
    13    13    14    1
    14    11    12    2
    15    11    16   am
    16     2     5    1
    17     2     1    1
    18    16    17    1
    19    27    25   am
    20    59    57    1
    21    18    17    1
    22    18    19    2
    23     5     6    1
    24     7     6    2
    25    17    20    1
    26    26    25    2
    27    25    24    1
    28     6     8   am
    29    93    91    1
    30    57    56    2
    31    57    58    1
    32    56    55    1
    33    20    22    1
    34    20    21    1
    35    92    91    1
    36    24    23    1
    37    91    88    1
    38    55    54    1
    39    54    53    1
    40    49    50    1
    41    90    89    2
    42    88    89    1
    43    88    87    1
    44    89    94   am
    45    87    82   am
    46    50    53    1
    47    50    51    1
    48    94    95    1
    49    95    96    1
    50    85    84    1
    51    47    46    1
    52    45    44    2
    53    82    81    1
    54    82    83    2
    55   112   111    1
    56    51    52    2
    57    81    84    1
    58    81    80    1
    59   111   108    1
    60    46    48    1
    61    46    43    1
    62    84    86    1
    63    96    97    2
    64    96    98   am
    65    44    43    1
    66    43    42    1
    67    98    99    1
    68   108   109    1
    69   108   107    1
    70   109   110    2
    71    37    36    2
    72   107   105   am
    73    99   102    1
    74    99   100    1
    75    38    39    1
    76    38    35    1
    77    36    35    1
    78    41    39   ar
    79    39    40   ar
    80   103   100   am
    81   103   104    1
    82   100   101    2
    83   105   104    1
    84   105   106    2
    85    79    77   ar
    86    34    35    1
    87    77    76    1
    88    77    78   ar
    89    76    75    1
    90    70    68    1
    91    75    72    1
    92    68    67    2
    93    68    69    1
    94    63    62    2
    95    72    71    1
    96    72    73    1
    97    67    66    1
    98    74    73    2
    99    62    61    1
   100    66    65    1
   101    64    61    1
   102    64    65    1
   103    60    61    1
