@<TRIPOS>MOLECULE
tmp/1estA00.pdb
 104 101 0 0 0
SMALL
GASTEIGER

@<TRIPOS>ATOM
      1  N         -0.7650   25.5540   32.3800 N.3    29  THR29      -0.1203
      2  CA        -1.7800   24.5970   32.8280 C.3    29  THR29       0.1994
      3  C         -2.4770   24.9790   34.1290 C.2    29  THR29       0.2618
      4  O         -3.7040   24.8610   34.2300 O.2    29  THR29      -0.2717
      5  CB        -1.2640   23.1600   32.8910 C.3    29  THR29       0.1784
      6  OG1       -2.3270   22.3190   33.3230 O.3    29  THR29      -0.2211
      7  CG2       -0.0620   22.9700   33.8170 C.3    29  THR29       0.0376
      8  N         -1.7140   25.5600   35.0360 N.am   30  CYS30      -0.1969
      9  CA        -2.2130   25.9050   36.3710 C.3    30  CYS30       0.1712
     10  C         -1.5790   27.1470   36.9840 C.2    30  CYS30       0.2296
     11  O         -0.4340   27.4810   36.6660 O.2    30  CYS30      -0.2864
     12  CB        -1.9920   24.7440   37.3380 C.3    30  CYS30       0.0983
     13  SG        -3.1650   23.3750   37.2440 S.3    30  CYS30      -0.0798
     14  N         -3.8170   18.0520   41.6210 N.3    45  HIS45      -0.1226
     15  CA        -4.6120   17.7330   40.4310 C.3    45  HIS45       0.1752
     16  C         -3.9220   18.1950   39.1520 C.2    45  HIS45       0.2596
     17  O         -3.7910   17.3970   38.2130 O.2    45  HIS45      -0.2718
     18  CB        -5.9800   18.4020   40.5370 C.3    45  HIS45       0.0759
     19  CG        -6.9920   17.7130   39.6120 C.ar   45  HIS45       0.0818
     20  ND1       -6.6170   16.7130   38.7570 N.ar   45  HIS45      -0.2268
     21  CD2       -8.3160   17.9070   39.4900 C.ar   45  HIS45       0.1154
     22  CE1       -7.7360   16.2980   38.0860 C.ar   45  HIS45       0.1986
     23  NE2       -8.7880   17.0430   38.5410 N.ar   45  HIS45      -0.2212
     24  N         -3.0670   19.1740   39.3790 N.am   46  CYS46      -0.1970
     25  CA        -2.2850   19.8080   38.3110 C.3    46  CYS46       0.1712
     26  C         -1.0980   18.9620   37.8770 C.2    46  CYS46       0.2296
     27  O         -0.6100   19.1040   36.7500 O.2    46  CYS46      -0.2864
     28  CB        -1.7570   21.1510   38.8000 C.3    46  CYS46       0.0983
     29  SG        -3.0090   22.4230   39.0340 S.3    46  CYS46      -0.0798
     30  N         -0.7850   15.6420   38.1950 N.3    48  ASP48      -0.1225
     31  CA        -1.1570   14.2300   37.9930 C.3    48  ASP48       0.1805
     32  C         -0.3950   13.5410   36.8650 C.2    48  ASP48       0.2597
     33  O          0.0240   12.3860   37.0070 O.2    48  ASP48      -0.2718
     34  CB        -2.6540   14.0710   37.7400 C.3    48  ASP48       0.1424
     35  CG        -3.4070   14.1120   39.0660 C.2    48  ASP48       0.3668
     36  OD1       -3.0120   13.4030   39.9980 O.co2  48  ASP48      -0.2456
     37  OD2       -4.4800   14.7200   39.1270 O.co2  48  ASP48      -0.2456
     38  N         -0.3710   14.1990   35.7220 N.am   49  ARG49      -0.1979
     39  CA         0.2740   13.6460   34.5240 C.3    49  ARG49       0.1597
     40  C          1.7560   13.9940   34.4370 C.2    49  ARG49       0.2287
     41  O          2.1420   15.0820   34.8790 O.2    49  ARG49      -0.2864
     42  CB        -0.4350   14.1250   33.2590 C.3    49  ARG49       0.0334
     43  CG        -1.8710   13.6130   33.1610 C.3    49  ARG49       0.0492
     44  CD        -2.5630   14.1290   31.9000 C.3    49  ARG49       0.2205
     45  NE        -3.9300   13.5970   31.8020 N.pl3  49  ARG49      -0.0865
     46  CZ        -4.5110   13.3060   30.6470 C.cat  49  ARG49       0.5346
     47  NH1       -5.7450   12.8260   30.6410 N.pl3  49  ARG49       0.1354
     48  NH2       -4.0000   13.7870   29.5240 N.pl3  49  ARG49       0.1354
     49  N        -12.0340   29.1750   36.8160 N.3   184  CYS184     -0.1221
     50  CA       -12.2430   28.3290   35.6350 C.3   184  CYS184      0.1808
     51  C        -10.9700   27.5710   35.2610 C.2   184  CYS184      0.2601
     52  O        -10.0390   27.5480   36.0780 O.2   184  CYS184     -0.2717
     53  CB       -12.6840   29.2470   34.4940 C.3   184  CYS184      0.0970
     54  SG       -13.8630   28.5680   33.3060 S.3   184  CYS184     -0.0800
     55  N        -11.1300   26.6440   34.3220 N.am  185  GLN185     -0.1965
     56  CA       -10.0120   25.8560   33.7840 C.3   185  GLN185      0.1733
     57  C         -8.7500   26.6750   33.5230 C.2   185  GLN185      0.2616
     58  O         -8.8040   27.6920   32.8220 O.2   185  GLN185     -0.2715
     59  CB       -10.3970   25.0910   32.5180 C.3   185  GLN185      0.0408
     60  CG       -11.2970   23.8840   32.7840 C.3   185  GLN185      0.0908
     61  CD       -12.6770   24.3320   33.2540 C.2   185  GLN185      0.2608
     62  OE1      -13.2370   25.2760   32.6830 O.2   185  GLN185     -0.2717
     63  NE2      -13.3280   23.4190   33.9580 N.am  185  GLN185     -0.0878
     64  N         -7.7830   26.4360   34.3850 N.am  186  GLY186     -0.1955
     65  CA        -6.4740   27.0890   34.3020 C.3   186  GLY186      0.1869
     66  C         -6.0780   27.7710   35.6060 C.2   186  GLY186      0.2309
     67  O         -4.9280   28.2080   35.7460 O.2   186  GLY186     -0.2863
     68  N         -6.6510   26.6040   38.5330 N.3   188  SER188     -0.1217
     69  CA        -6.2890   25.5230   39.4740 C.3   188  SER188      0.1889
     70  C         -4.9400   25.6800   40.1630 C.2   188  SER188      0.2288
     71  O         -3.9220   25.9260   39.5130 O.2   188  SER188     -0.2866
     72  CB        -6.3350   24.1370   38.8370 C.3   188  SER188      0.2089
     73  OG        -7.6690   23.5610   38.7220 O.3   188  SER188     -0.2183
     74  N         -7.1770   26.7560   44.5610 N.3   206  THR206     -0.1203
     75  CA        -8.1920   26.4520   43.5300 C.3   206  THR206      0.1994
     76  C         -8.2340   24.9830   43.1220 C.2   206  THR206      0.2619
     77  O         -7.2020   24.4150   42.7440 O.2   206  THR206     -0.2717
     78  CB        -7.9930   27.2950   42.2730 C.3   206  THR206      0.1784
     79  OG1       -7.7940   28.6640   42.6020 O.3   206  THR206     -0.2211
     80  CG2       -9.1550   27.1540   41.2910 C.3   206  THR206      0.0376
     81  N         -9.2880   24.3300   43.5660 N.am  207  SER207     -0.1937
     82  CA        -9.4510   22.9040   43.2870 C.3   207  SER207      0.2055
     83  C        -10.3790   22.6060   42.1120 C.2   207  SER207      0.2643
     84  O         -9.9250   22.0640   41.0970 O.2   207  SER207     -0.2714
     85  CB        -9.9260   22.1700   44.5350 C.3   207  SER207      0.2130
     86  OG        -9.9120   20.7760   44.2670 O.3   207  SER207     -0.2179
     87  N        -11.6720   22.8370   42.3140 N.am  208  PHE208     -0.1959
     88  CA       -12.6770   22.5330   41.2780 C.3   208  PHE208      0.1771
     89  C        -13.8740   23.4810   41.1940 C.2   208  PHE208      0.2619
     90  O        -13.9720   24.4450   41.9660 O.2   208  PHE208     -0.2715
     91  CB       -13.1580   21.0770   41.3610 C.3   208  PHE208      0.0574
     92  CG       -13.8700   20.7280   42.6820 C.ar  208  PHE208     -0.0200
     93  CD1      -13.1400   20.2580   43.7610 C.ar  208  PHE208     -0.0042
     94  CD2      -15.2500   20.8180   42.7750 C.ar  208  PHE208     -0.0042
     95  CE1      -13.7810   19.9310   44.9610 C.ar  208  PHE208     -0.0003
     96  CE2      -15.9000   20.4930   43.9710 C.ar  208  PHE208     -0.0003
     97  CZ       -15.1640   20.0540   45.0700 C.ar  208  PHE208     -0.0000
     98  N        -14.5530   23.3530   40.0590 N.am  209  VAL209     -0.1977
     99  CA       -15.8330   24.0090   39.7460 C.3   209  VAL209      0.1596
    100  C        -16.8850   22.9890   39.3160 C.2   209  VAL209      0.2287
    101  O        -16.5860   21.7920   39.2170 O.2   209  VAL209     -0.2864
    102  CB       -15.6680   25.0550   38.6420 C.3   209  VAL209      0.0276
    103  CG1      -14.9340   26.3050   39.1210 C.3   209  VAL209      0.0022
    104  CG2      -15.0670   24.4800   37.3610 C.3   209  VAL209      0.0022
@<TRIPOS>BOND
     1    48    46    1
     2    47    46    1
     3    46    45    2
     4    45    44    1
     5    44    43    1
     6     1     2    1
     7    59    60    1
     8    59    56    1
     9    62    61    2
    10    60    61    1
    11    58    57    2
    12     2     5    1
    13     2     3    1
    14     5     6    1
    15     5     7    1
    16    43    42    1
    17    61    63   am
    18    42    39    1
    19    54    53    1
    20    57    56    1
    21    57    64   am
    22    56    55    1
    23     3     4    2
    24     3     8   am
    25    65    64    1
    26    65    66    1
    27    55    51   am
    28    40    39    1
    29    40    41    2
    30    53    50    1
    31    39    38    1
    32     8     9    1
    33    51    50    1
    34    51    52    2
    35    66    67    2
    36    50    49    1
    37    38    32   am
    38     9    10    1
    39     9    12    1
    40    11    10    2
    41    27    26    2
    42    32    33    2
    43    32    31    1
    44    13    12    1
    45    13    29    1
    46   104   102    1
    47    34    31    1
    48    34    35    1
    49    26    25    1
    50    31    30    1
    51    22    23   ar
    52    22    20   ar
    53    17    16    2
    54    25    28    1
    55    25    24    1
    56    68    69    1
    57    23    21   ar
    58   102   103    1
    59   102    99    1
    60    73    72    1
    61    20    19   ar
    62    28    29    1
    63    72    69    1
    64    35    37   ar
    65    35    36   ar
    66    16    24   am
    67    16    15    1
    68   101   100    2
    69   100    99    1
    70    69    70    1
    71    21    19   ar
    72    71    70    2
    73    19    18    1
    74    99    98    1
    75    98    89   am
    76    15    18    1
    77    15    14    1
    78    84    83    2
    79    89    88    1
    80    89    90    2
    81    88    91    1
    82    88    87    1
    83    80    78    1
    84    91    92    1
    85    83    87   am
    86    83    82    1
    87    78    79    1
    88    78    75    1
    89    92    94   ar
    90    92    93   ar
    91    77    76    2
    92    94    96   ar
    93    76    75    1
    94    76    81   am
    95    82    81    1
    96    82    85    1
    97    75    74    1
    98    93    95   ar
    99    96    97   ar
   100    86    85    1
   101    95    97   ar
