@<TRIPOS>MOLECULE
tmp/1eswA00.pdb
 203 199 0 0 0
SMALL
GASTEIGER

@<TRIPOS>ATOM
      1  N        -52.7990  -21.4080   -4.6750 N.3    57  SER57      -0.1217
      2  CA       -52.0830  -22.1370   -3.6730 C.3    57  SER57       0.1889
      3  C        -52.9900  -22.8300   -2.6470 C.2    57  SER57       0.2288
      4  O        -53.8940  -22.2240   -2.0830 O.2    57  SER57      -0.2866
      5  CB       -51.1250  -21.2110   -2.9260 C.3    57  SER57       0.2089
      6  OG       -50.5940  -21.8790   -1.7800 O.3    57  SER57      -0.2183
      7  N        -52.1480  -23.6270    0.1310 N.3    59  TYR59      -0.1227
      8  CA       -51.7840  -23.0950    1.4490 C.3    59  TYR59       0.1736
      9  C        -52.4000  -21.7640    1.8150 C.2    59  TYR59       0.2595
     10  O        -52.0400  -21.1900    2.8250 O.2    59  TYR59      -0.2718
     11  CB       -50.2540  -22.9980    1.5840 C.3    59  TYR59       0.0548
     12  CG       -49.6260  -24.3770    1.4950 C.ar   59  TYR59      -0.0200
     13  CD1      -49.3740  -24.9580    0.2550 C.ar   59  TYR59      -0.0009
     14  CD2      -49.4390  -25.1580    2.6430 C.ar   59  TYR59      -0.0009
     15  CE1      -48.9600  -26.2780    0.1520 C.ar   59  TYR59       0.0417
     16  CE2      -49.0260  -26.4970    2.5560 C.ar   59  TYR59       0.0417
     17  CZ       -48.7930  -27.0440    1.2950 C.ar   59  TYR59       0.1957
     18  OH       -48.4480  -28.3800    1.1650 O.3    59  TYR59      -0.2866
     19  N        -53.3260  -21.2830    1.0040 N.am   60  GLN60      -0.1979
     20  CA       -53.9880  -20.0030    1.2500 C.3    60  GLN60       0.1601
     21  C        -55.4370  -20.2770    0.8960 C.2    60  GLN60       0.2287
     22  O        -55.8870  -19.9120   -0.1720 O.2    60  GLN60      -0.2864
     23  CB       -53.3670  -18.9940    0.2880 C.3    60  GLN60       0.0394
     24  CG       -53.8210  -17.5900    0.3610 C.3    60  GLN60       0.0908
     25  CD       -52.7880  -16.7180   -0.3490 C.2    60  GLN60       0.2608
     26  OE1      -52.3400  -17.0390   -1.4840 O.2    60  GLN60      -0.2717
     27  NE2      -52.3690  -15.6650    0.3040 N.am   60  GLN60      -0.0878
     28  N        -51.8330  -26.3630    7.0820 N.3   215  PRO215     -0.2116
     29  CA       -50.8770  -25.3510    7.5290 C.3   215  PRO215      0.1372
     30  C        -51.1770  -24.9210    8.9750 C.2   215  PRO215      0.2244
     31  O        -52.3410  -24.8460    9.3820 O.2   215  PRO215     -0.2868
     32  CB       -51.0380  -24.2400    6.5050 C.3   215  PRO215      0.0268
     33  CG       -52.4380  -24.4060    5.9990 C.3   215  PRO215      0.0207
     34  CD       -52.6380  -25.9150    5.9410 C.3   215  PRO215      0.0892
     35  N        -41.1290  -15.7670    9.0260 N.3   246  VAL246     -0.1245
     36  CA       -39.9210  -16.2610    9.6680 C.3   246  VAL246      0.1561
     37  C        -38.8680  -15.1690    9.5280 C.2   246  VAL246      0.2260
     38  O        -38.8270  -14.4400    8.5220 O.2   246  VAL246     -0.2867
     39  CB       -39.4200  -17.6040    9.0570 C.3   246  VAL246      0.0252
     40  CG1      -40.2570  -18.7700    9.6300 C.3   246  VAL246      0.0019
     41  CG2      -39.5010  -17.5710    7.5380 C.3   246  VAL246      0.0019
     42  N        -39.1100  -13.9070    5.7310 N.3   256  GLN256     -0.1231
     43  CA       -40.3260  -14.0880    4.9670 C.3   256  GLN256      0.1698
     44  C        -41.5290  -13.5890    5.7500 C.2   256  GLN256      0.2592
     45  O        -41.7370  -13.9810    6.9020 O.2   256  GLN256     -0.2718
     46  CB       -40.5460  -15.5640    4.6380 C.3   256  GLN256      0.0381
     47  CG       -39.4950  -16.1680    3.7390 C.3   256  GLN256      0.0905
     48  CD       -39.5570  -17.6750    3.7790 C.2   256  GLN256      0.2608
     49  OE1      -40.6400  -18.2620    3.8560 O.2   256  GLN256     -0.2717
     50  NE2      -38.3870  -18.3200    3.7210 N.am  256  GLN256     -0.0878
     51  N        -42.3060  -12.7310    5.1010 N.am  257  ARG257     -0.1966
     52  CA       -43.5160  -12.1850    5.6810 C.3   257  ARG257      0.1729
     53  C        -44.6120  -12.9380    4.9410 C.2   257  ARG257      0.2616
     54  O        -44.9040  -12.6530    3.7950 O.2   257  ARG257     -0.2715
     55  CB       -43.6230  -10.6880    5.4030 C.3   257  ARG257      0.0348
     56  CG       -44.8390  -10.0360    6.0870 C.3   257  ARG257      0.0492
     57  CD       -45.0140   -8.5880    5.5900 C.3   257  ARG257      0.2205
     58  NE       -46.0990   -7.8680    6.2600 N.pl3 257  ARG257     -0.0865
     59  CZ       -47.4000   -8.0390    6.0190 C.cat 257  ARG257      0.5346
     60  NH1      -47.8140   -8.9280    5.1120 N.pl3 257  ARG257      0.1354
     61  NH2      -48.2960   -7.2940    6.6720 N.pl3 257  ARG257      0.1354
     62  N        -45.1780  -13.9470    5.5880 N.am  258  TRP258     -0.1960
     63  CA       -46.2360  -14.7480    4.9610 C.3   258  TRP258      0.1771
     64  C        -47.5650  -14.0320    4.9290 C.2   258  TRP258      0.2620
     65  O        -48.3310  -14.1950    3.9890 O.2   258  TRP258     -0.2715
     66  CB       -46.4030  -16.0540    5.7130 C.3   258  TRP258      0.0590
     67  CG       -45.1420  -16.8530    5.7690 C.ar  258  TRP258      0.0006
     68  CD1      -44.0800  -16.8050    4.8860 C.ar  258  TRP258      0.0946
     69  CD2      -44.8320  -17.8820    6.7140 C.ar  258  TRP258      0.0152
     70  NE1      -43.1390  -17.7490    5.2320 N.ar  258  TRP258     -0.2442
     71  CE2      -43.5720  -18.4250    6.3460 C.ar  258  TRP258      0.0810
     72  CE3      -45.4930  -18.3980    7.8420 C.ar  258  TRP258      0.0012
     73  CZ2      -42.9650  -19.4630    7.0650 C.ar  258  TRP258      0.0191
     74  CZ3      -44.8850  -19.4260    8.5620 C.ar  258  TRP258      0.0001
     75  CH2      -43.6290  -19.9480    8.1620 C.ar  258  TRP258      0.0015
     76  N        -47.8500  -13.2650    5.9820 N.am  259  GLY259     -0.1940
     77  CA       -49.0850  -12.5030    6.0090 C.3   259  GLY259      0.2014
     78  C        -50.2420  -13.1100    6.7730 C.2   259  GLY259      0.2638
     79  O        -51.2370  -12.4310    7.0160 O.2   259  GLY259     -0.2714
     80  N        -50.1320  -14.3740    7.1430 N.am  260  ASN260     -0.1972
     81  CA       -51.2140  -15.0470    7.8750 C.3   260  ASN260      0.1688
     82  C        -51.5510  -14.4090    9.2170 C.2   260  ASN260      0.2292
     83  O        -50.6690  -13.9450    9.9490 O.2   260  ASN260     -0.2864
     84  CB       -50.8580  -16.5080    8.2030 C.3   260  ASN260      0.1181
     85  CG       -50.4130  -17.2950    7.0020 C.2   260  ASN260      0.2629
     86  OD1      -49.3020  -17.1140    6.5050 O.2   260  ASN260     -0.2716
     87  ND2      -51.2720  -18.2050    6.5360 N.am  260  ASN260     -0.0877
     88  N        -50.1460  -33.8700    8.2280 N.3   291  ARG291     -0.1245
     89  CA       -48.8650  -33.2030    8.3020 C.3   291  ARG291      0.1563
     90  C        -49.2120  -31.7490    8.5890 C.2   291  ARG291      0.2260
     91  O        -50.0770  -31.1750    7.9290 O.2   291  ARG291     -0.2867
     92  CB       -48.0480  -33.2320    6.9920 C.3   291  ARG291      0.0307
     93  CG       -47.0710  -31.9690    6.9820 C.3   291  ARG291      0.0489
     94  CD       -45.7970  -32.0760    6.2050 C.3   291  ARG291      0.2205
     95  NE       -46.0540  -31.9690    4.7800 N.pl3 291  ARG291     -0.0865
     96  CZ       -45.8770  -30.8740    4.0550 C.cat 291  ARG291      0.5346
     97  NH1      -45.4120  -29.7550    4.5980 N.pl3 291  ARG291      0.1354
     98  NH2      -46.2290  -30.8910    2.7760 N.pl3 291  ARG291      0.1354
     99  N        -47.8020  -27.9950    8.5400 N.3   293  ASP293     -0.1225
    100  CA       -46.6980  -27.1690    8.0430 C.3   293  ASP293      0.1805
    101  C        -46.3240  -26.1610    9.1070 C.2   293  ASP293      0.2597
    102  O        -47.1980  -25.6480    9.8350 O.2   293  ASP293     -0.2718
    103  CB       -47.1090  -26.4750    6.7470 C.3   293  ASP293      0.1424
    104  CG       -47.7570  -27.4470    5.7810 C.2   293  ASP293      0.3668
    105  OD1      -47.0420  -28.3020    5.1850 O.co2 293  ASP293     -0.2456
    106  OD2      -48.9950  -27.4110    5.6530 O.co2 293  ASP293     -0.2456
    107  N        -45.0270  -25.9020    9.2000 N.am  294  HIS294     -0.1975
    108  CA       -44.4550  -24.9880   10.1850 C.3   294  HIS294      0.1656
    109  C        -44.8480  -25.3890   11.6090 C.2   294  HIS294      0.2291
    110  O        -45.2800  -24.5680   12.4340 O.2   294  HIS294     -0.2864
    111  CB       -44.8660  -23.5420    9.9190 C.3   294  HIS294      0.0771
    112  CG       -43.9850  -22.5450   10.6060 C.ar  294  HIS294      0.0820
    113  ND1      -42.6380  -22.4340   10.3290 N.ar  294  HIS294     -0.2267
    114  CD2      -44.2480  -21.6340   11.5730 C.ar  294  HIS294      0.1154
    115  CE1      -42.1100  -21.4990   11.1020 C.ar  294  HIS294      0.1986
    116  NE2      -43.0670  -21.0000   11.8660 N.ar  294  HIS294     -0.2212
    117  N        -43.8750  -30.8530   10.0820 N.3   340  GLU340     -0.1245
    118  CA       -43.0050  -30.3100    9.0370 C.3   340  GLU340      0.1567
    119  C        -42.1000  -29.4200    9.8660 C.2   340  GLU340      0.2260
    120  O        -42.5250  -28.3830   10.3920 O.2   340  GLU340     -0.2867
    121  CB       -43.7430  -29.4830    7.9930 C.3   340  GLU340      0.0388
    122  CG       -42.8000  -28.8630    6.9650 C.3   340  GLU340      0.1160
    123  CD       -42.2280  -27.5170    7.4120 C.2   340  GLU340      0.3649
    124  OE1      -43.0010  -26.5550    7.5410 O.co2 340  GLU340     -0.2457
    125  OE2      -41.0170  -27.4210    7.6460 O.co2 340  GLU340     -0.2457
    126  N        -38.7300  -28.5140    8.7430 N.3   342  LEU342     -0.1245
    127  CA       -37.5520  -28.3050    7.9300 C.3   342  LEU342      0.1561
    128  C        -36.6850  -27.1300    8.3700 C.2   342  LEU342      0.2260
    129  O        -37.1550  -26.0110    8.5130 O.2   342  LEU342     -0.2867
    130  CB       -37.9460  -28.1690    6.4590 C.3   342  LEU342      0.0270
    131  CG       -38.5520  -29.4480    5.8590 C.3   342  LEU342      0.0019
    132  CD1      -39.0630  -29.1670    4.4270 C.3   342  LEU342      0.0001
    133  CD2      -37.5070  -30.5920    5.8820 C.3   342  LEU342      0.0001
    134  N        -43.3840  -30.5810   -2.5490 N.3   394  HIS394     -0.1226
    135  CA       -44.0360  -29.7720   -3.5770 C.3   394  HIS394      0.1752
    136  C        -43.3510  -28.4080   -3.7620 C.2   394  HIS394      0.2596
    137  O        -43.5530  -27.7520   -4.7830 O.2   394  HIS394     -0.2718
    138  CB       -45.4890  -29.5120   -3.1920 C.3   394  HIS394      0.0759
    139  CG       -45.6240  -28.8300   -1.8690 C.ar  394  HIS394      0.0818
    140  ND1      -45.4140  -29.4890   -0.6750 N.ar  394  HIS394     -0.2268
    141  CD2      -45.8180  -27.5230   -1.5540 C.ar  394  HIS394      0.1154
    142  CE1      -45.4590  -28.6130    0.3160 C.ar  394  HIS394      0.1986
    143  NE2      -45.6980  -27.4170   -0.1910 N.ar  394  HIS394     -0.2212
    144  N        -42.5770  -27.9620   -2.7730 N.am  395  ASP395     -0.1974
    145  CA       -41.9020  -26.6550   -2.8820 C.3   395  ASP395      0.1709
    146  C        -40.5440  -26.7410   -3.5840 C.2   395  ASP395      0.2293
    147  O        -39.9120  -25.7160   -3.8740 O.2   395  ASP395     -0.2864
    148  CB       -41.6500  -26.0230   -1.4980 C.3   395  ASP395      0.1436
    149  CG       -42.9130  -25.4420   -0.8680 C.2   395  ASP395      0.3671
    150  OD1      -43.8560  -25.0760   -1.5960 O.co2 395  ASP395     -0.2456
    151  OD2      -42.9330  -25.3320    0.3600 O.co2 395  ASP395     -0.2456
    152  N        -44.4560  -26.4130   -7.2060 N.3   464  ASN464     -0.1240
    153  CA       -44.4570  -25.0250   -6.7900 C.3   464  ASN464      0.1653
    154  C        -43.0400  -24.4920   -6.7070 C.2   464  ASN464      0.2266
    155  O        -42.1240  -25.1780   -6.2630 O.2   464  ASN464     -0.2867
    156  CB       -45.1370  -24.8870   -5.4110 C.3   464  ASN464      0.1155
    157  CG       -45.0880  -23.4600   -4.8690 C.2   464  ASN464      0.2627
    158  OD1      -45.5000  -22.5160   -5.5390 O.2   464  ASN464     -0.2716
    159  ND2      -44.5910  -23.3080   -3.6520 N.am  464  ASN464     -0.0877
    160  N        -41.5610  -21.4220   -4.8900 N.3   466  PRO466     -0.2102
    161  CA       -41.7590  -20.2820   -3.9930 C.3   466  PRO466      0.1504
    162  C        -41.0600  -19.0510   -4.5180 C.2   466  PRO466      0.2576
    163  O        -39.8390  -19.0650   -4.7380 O.2   466  PRO466     -0.2718
    164  CB       -41.1450  -20.7460   -2.6630 C.3   466  PRO466      0.0282
    165  CG       -41.2520  -22.2550   -2.7190 C.3   466  PRO466      0.0208
    166  CD       -40.9310  -22.5490   -4.1750 C.3   466  PRO466      0.0893
    167  N        -41.8400  -17.9930   -4.7110 N.am  467  GLY467     -0.1943
    168  CA       -41.2970  -16.7380   -5.1800 C.3   467  GLY467      0.2014
    169  C        -41.6030  -16.5010   -6.6340 C.2   467  GLY467      0.2638
    170  O        -41.4980  -15.3610   -7.0950 O.2   467  GLY467     -0.2714
    171  N        -41.9560  -17.5540   -7.3670 N.am  468  ARG468     -0.1977
    172  CA       -42.2480  -17.4010   -8.7880 C.3   468  ARG468      0.1597
    173  C        -43.6960  -16.9770   -8.9540 C.2   468  ARG468      0.2287
    174  O        -44.5980  -17.5300   -8.3140 O.2   468  ARG468     -0.2864
    175  CB       -41.9820  -18.7040   -9.5540 C.3   468  ARG468      0.0334
    176  CG       -42.1900  -18.5900  -11.0760 C.3   468  ARG468      0.0492
    177  CD       -41.8910  -19.9250  -11.7830 C.3   468  ARG468      0.2205
    178  NE       -42.8450  -20.9730  -11.4080 N.pl3 468  ARG468     -0.0865
    179  CZ       -42.7090  -22.2640  -11.7210 C.cat 468  ARG468      0.5346
    180  NH1      -41.6580  -22.6790  -12.4140 N.pl3 468  ARG468      0.1354
    181  NH2      -43.6210  -23.1530  -11.3340 N.pl3 468  ARG468      0.1354
    182  N        -47.6100  -22.1970  -10.8670 N.3   472  ASN472     -0.1225
    183  CA       -47.6080  -23.0760   -9.7240 C.3   472  ASN472      0.1785
    184  C        -48.8700  -23.8950   -9.5510 C.2   472  ASN472      0.2597
    185  O        -49.9410  -23.5020  -10.0210 O.2   472  ASN472     -0.2718
    186  CB       -47.3200  -22.2890   -8.4540 C.3   472  ASN472      0.1169
    187  CG       -45.9900  -21.5760   -8.5170 C.2   472  ASN472      0.2627
    188  OD1      -44.9660  -22.1800   -8.8560 O.2   472  ASN472     -0.2716
    189  ND2      -45.9950  -20.2800   -8.2050 N.am  472  ASN472     -0.0877
    190  N        -48.6920  -25.0460   -8.9010 N.am  473  TRP473     -0.1976
    191  CA       -49.7500  -25.9790   -8.5590 C.3   473  TRP473      0.1640
    192  C        -50.4740  -26.5730   -9.7550 C.2   473  TRP473      0.2290
    193  O        -51.5500  -27.1850   -9.5950 O.2   473  TRP473     -0.2864
    194  CB       -50.7720  -25.2490   -7.6860 C.3   473  TRP473      0.0576
    195  CG       -50.1180  -24.3560   -6.6690 C.ar  473  TRP473      0.0006
    196  CD1      -50.0860  -23.0020   -6.6750 C.ar  473  TRP473      0.0946
    197  CD2      -49.3740  -24.7760   -5.5240 C.ar  473  TRP473      0.0152
    198  NE1      -49.3660  -22.5400   -5.6020 N.ar  473  TRP473     -0.2442
    199  CE2      -48.9160  -23.6110   -4.8760 C.ar  473  TRP473      0.0810
    200  CE3      -49.0540  -26.0290   -4.9740 C.ar  473  TRP473      0.0012
    201  CZ2      -48.1500  -23.6550   -3.6960 C.ar  473  TRP473      0.0191
    202  CZ3      -48.3020  -26.0800   -3.8160 C.ar  473  TRP473      0.0001
    203  CH2      -47.8520  -24.8910   -3.1820 C.ar  473  TRP473      0.0015
@<TRIPOS>BOND
     1   180   179    1
     2   177   178    1
     3   177   176    1
     4   179   178    2
     5   179   181    1
     6   176   175    1
     7   182   183    1
     8   185   184    2
     9   192   193    2
    10   192   191    1
    11   183   184    1
    12   183   186    1
    13   175   172    1
    14   184   190   am
    15   173   172    1
    16   173   174    2
    17   190   191    1
    18   188   187    2
    19   172   171    1
    20   191   194    1
    21   187   186    1
    22   187   189   am
    23   194   195    1
    24   171   169   am
    25   152   153    1
    26   170   169    2
    27   153   154    1
    28   153   156    1
    29   154   155    2
    30   196   195   ar
    31   196   198   ar
    32   195   197   ar
    33   169   168    1
    34   198   199   ar
    35   158   157    2
    36   197   200   ar
    37   197   199   ar
    38   156   157    1
    39   168   167    1
    40   200   202   ar
    41   160   166    1
    42   160   161    1
    43   199   201   ar
    44   157   159   am
    45   137   136    2
    46   163   162    2
    47   167   162   am
    48     1     2    1
    49   162   161    1
    50   166   165    1
    51   161   164    1
    52   147   146    2
    53   202   203   ar
    54   136   135    1
    55   136   144   am
    56   201   203   ar
    57     2     5    1
    58     2     3    1
    59   146   145    1
    60   135   138    1
    61   135   134    1
    62   138   139    1
    63     5     6    1
    64   145   144    1
    65   145   148    1
    66   165   164    1
    67     3     4    2
    68   139   141   ar
    69   139   140   ar
    70   150   149   ar
    71   141   143   ar
    72   148   149    1
    73    26    25    2
    74   149   151   ar
    75   140   142   ar
    76    25    27   am
    77    25    24    1
    78   143   142   ar
    79    22    21    2
    80     7     8    1
    81    15    13   ar
    82    15    17   ar
    83    13    12   ar
    84    23    24    1
    85    23    20    1
    86    21    20    1
    87    19    20    1
    88    19     9   am
    89    18    17    1
    90    17    16   ar
    91     8    11    1
    92     8     9    1
    93    12    11    1
    94    12    14   ar
    95     9    10    2
    96    16    14   ar
    97    98    96    1
    98    50    48   am
    99    47    48    1
   100    47    46    1
   101    48    49    2
   102    54    53    2
   103    65    64    2
   104    96    97    1
   105    96    95    2
   106   132   131    1
   107    46    43    1
   108    95    94    1
   109    68    70   ar
   110    68    67   ar
   111    64    63    1
   112    64    76   am
   113    53    62   am
   114    53    52    1
   115    63    62    1
   116    63    66    1
   117    43    42    1
   118    43    44    1
   119    51    52    1
   120    51    44   am
   121    60    59    1
   122   105   104   ar
   123    70    71   ar
   124    55    52    1
   125    55    56    1
   126    57    56    1
   127    57    58    1
   128   106   104   ar
   129    66    67    1
   130    44    45    2
   131    67    69   ar
   132   104   103    1
   133   131   133    1
   134   131   130    1
   135    34    33    1
   136    34    28    1
   137    76    77    1
   138    33    32    1
   139    77    78    1
   140    59    58    2
   141    59    61    1
   142    94    93    1
   143    71    69   ar
   144    71    73   ar
   145   130   127    1
   146    32    29    1
   147    86    85    2
   148    87    85   am
   149    69    72   ar
   150   103   100    1
   151    78    79    2
   152    78    80   am
   153   122   123    1
   154   122   121    1
   155    93    92    1
   156    92    89    1
   157    85    84    1
   158    73    75   ar
   159    28    29    1
   160    80    81    1
   161   123   124   ar
   162   123   125   ar
   163    29    30    1
   164    41    39    1
   165    72    74   ar
   166    81    84    1
   167    81    82    1
   168    91    90    2
   169   127   128    1
   170   127   126    1
   171   121   118    1
   172   100    99    1
   173   100   101    1
   174    75    74   ar
   175    88    89    1
   176    89    90    1
   177   128   129    2
   178    38    37    2
   179    30    31    2
   180    35    36    1
   181   118   119    1
   182   118   117    1
   183    39    40    1
   184    39    36    1
   185   101   107   am
   186   101   102    2
   187   107   108    1
   188    82    83    2
   189    37    36    1
   190   119   120    2
   191   111   108    1
   192   111   112    1
   193   108   109    1
   194   113   112   ar
   195   113   115   ar
   196   112   114   ar
   197   115   116   ar
   198   114   116   ar
   199   109   110    2
