@<TRIPOS>MOLECULE
tmp/1eswA01.pdb
 135 134 0 0 0
SMALL
GASTEIGER

@<TRIPOS>ATOM
      1  N        -59.4650  -22.7140   -3.0910 N.3    52  THR52      -0.1203
      2  CA       -58.3850  -21.7730   -3.3400 C.3    52  THR52       0.1994
      3  C        -58.8120  -20.5190   -4.0670 C.2    52  THR52       0.2618
      4  O        -59.8760  -20.4670   -4.7020 O.2    52  THR52      -0.2717
      5  CB       -57.2690  -22.4580   -4.1730 C.3    52  THR52       0.1784
      6  OG1      -57.8390  -22.9210   -5.4150 O.3    52  THR52      -0.2211
      7  CG2      -56.6770  -23.6740   -3.3920 C.3    52  THR52       0.0376
      8  N        -57.9550  -19.5060   -3.9700 N.am   53  GLY53      -0.1942
      9  CA       -58.2020  -18.2350   -4.6220 C.3    53  GLY53       0.2014
     10  C        -57.1680  -17.9160   -5.6900 C.2    53  GLY53       0.2639
     11  O        -56.5560  -18.8130   -6.2920 O.2    53  GLY53      -0.2714
     12  N        -56.9470  -16.6230   -5.9170 N.am   54  TYR54      -0.1959
     13  CA       -55.9990  -16.1950   -6.9390 C.3    54  TYR54       0.1771
     14  C        -54.5960  -16.7440   -6.6450 C.2    54  TYR54       0.2620
     15  O        -54.0950  -16.6560   -5.5260 O.2    54  TYR54      -0.2715
     16  CB       -55.9770  -14.6620   -7.0110 C.3    54  TYR54       0.0574
     17  CG       -55.2880  -14.1450   -8.2660 C.ar   54  TYR54      -0.0198
     18  CD1      -56.0290  -13.8490   -9.4240 C.ar   54  TYR54      -0.0009
     19  CD2      -53.9030  -14.0010   -8.3100 C.ar   54  TYR54      -0.0009
     20  CE1      -55.3890  -13.4190  -10.5970 C.ar   54  TYR54       0.0417
     21  CE2      -53.2590  -13.5780   -9.4710 C.ar   54  TYR54       0.0417
     22  CZ       -54.0100  -13.2890  -10.6040 C.ar   54  TYR54       0.1957
     23  OH       -53.3610  -12.8650  -11.7450 O.3    54  TYR54      -0.2866
     24  N        -53.9510  -17.3290   -7.6460 N.am   55  GLY55      -0.1940
     25  CA       -52.6240  -17.8810   -7.3960 C.3    55  GLY55       0.2014
     26  C        -52.7060  -19.3760   -7.1780 C.2    55  GLY55       0.2638
     27  O        -51.6970  -20.0710   -7.2820 O.2    55  GLY55      -0.2714
     28  N        -53.8940  -19.8490   -6.7980 N.am   56  ASP56      -0.1971
     29  CA       -54.1740  -21.2840   -6.6570 C.3    56  ASP56       0.1709
     30  C        -53.4150  -22.0940   -5.6170 C.2    56  ASP56       0.2293
     31  O        -53.4060  -23.3380   -5.6490 O.2    56  ASP56      -0.2864
     32  CB       -54.0140  -21.9210   -8.0350 C.3    56  ASP56       0.1436
     33  CG       -54.6320  -21.0520   -9.1300 C.2    56  ASP56       0.3671
     34  OD1      -55.8530  -20.8630   -9.1110 O.co2  56  ASP56      -0.2456
     35  OD2      -53.8980  -20.5380   -9.9950 O.co2  56  ASP56      -0.2456
     36  N        -59.7410  -20.3540    1.4530 N.3    62  PHE62      -0.1241
     37  CA       -60.8800  -19.5780    1.9420 C.3    62  PHE62       0.1605
     38  C        -61.4440  -20.2220    3.2290 C.2    62  PHE62       0.2264
     39  O        -62.2590  -19.6100    3.9260 O.2    62  PHE62      -0.2867
     40  CB       -61.9700  -19.5350    0.8610 C.3    62  PHE62       0.0534
     41  CG       -61.6360  -18.6380   -0.2890 C.ar   62  PHE62      -0.0203
     42  CD1      -61.7930  -19.0770   -1.6000 C.ar   62  PHE62      -0.0042
     43  CD2      -61.1460  -17.3590   -0.0630 C.ar   62  PHE62      -0.0042
     44  CE1      -61.4510  -18.2390   -2.6830 C.ar   62  PHE62      -0.0003
     45  CE2      -60.7990  -16.5100   -1.1370 C.ar   62  PHE62      -0.0003
     46  CZ       -60.9540  -16.9640   -2.4480 C.ar   62  PHE62      -0.0000
     47  N        -62.9570  -27.5330   -6.9410 N.3    70  TYR70      -0.1241
     48  CA       -62.3050  -27.9850   -8.1770 C.3    70  TYR70       0.1605
     49  C        -62.0050  -29.4740   -8.1630 C.2    70  TYR70       0.2264
     50  O        -61.7610  -30.0620   -9.2230 O.2    70  TYR70      -0.2867
     51  CB       -60.9910  -27.2360   -8.4310 C.3    70  TYR70       0.0534
     52  CG       -61.1510  -25.7720   -8.7800 C.ar   70  TYR70      -0.0201
     53  CD1      -60.1220  -24.8610   -8.5130 C.ar   70  TYR70      -0.0009
     54  CD2      -62.3200  -25.2920   -9.3680 C.ar   70  TYR70      -0.0009
     55  CE1      -60.2470  -23.5130   -8.8270 C.ar   70  TYR70       0.0417
     56  CE2      -62.4670  -23.9070   -9.6820 C.ar   70  TYR70       0.0417
     57  CZ       -61.4240  -23.0450   -9.4100 C.ar   70  TYR70       0.1957
     58  OH       -61.5120  -21.7170   -9.7330 O.3    70  TYR70      -0.2866
     59  N        -55.7010  -22.9430  -14.5650 N.3    97  TYR97      -0.1227
     60  CA       -56.6290  -22.4750  -13.5410 C.3    97  TYR97       0.1736
     61  C        -57.5470  -21.3680  -13.9960 C.2    97  TYR97       0.2596
     62  O        -58.6540  -21.2290  -13.4650 O.2    97  TYR97      -0.2718
     63  CB       -55.8930  -22.0230  -12.2730 C.3    97  TYR97       0.0548
     64  CG       -55.3940  -23.1620  -11.3960 C.ar   97  TYR97      -0.0200
     65  CD1      -54.0500  -23.5680  -11.4400 C.ar   97  TYR97      -0.0009
     66  CD2      -56.2620  -23.8550  -10.5500 C.ar   97  TYR97      -0.0009
     67  CE1      -53.5900  -24.6440  -10.6540 C.ar   97  TYR97       0.0417
     68  CE2      -55.8100  -24.9360   -9.7640 C.ar   97  TYR97       0.0417
     69  CZ       -54.4740  -25.3190   -9.8240 C.ar   97  TYR97       0.1957
     70  OH       -54.0310  -26.3830   -9.0470 O.3    97  TYR97      -0.2866
     71  N        -57.0860  -20.5630  -14.9490 N.am   98  GLY98      -0.1957
     72  CA       -57.9330  -19.4890  -15.4610 C.3    98  GLY98       0.1869
     73  C        -59.1450  -20.0990  -16.1290 C.2    98  GLY98       0.2309
     74  O        -60.2830  -19.7060  -15.8720 O.2    98  GLY98      -0.2863
     75  N        -61.4410  -21.8760  -13.6010 N.3   101  TYR101     -0.1241
     76  CA       -62.2640  -20.9400  -12.8530 C.3   101  TYR101      0.1605
     77  C        -63.4470  -20.4710  -13.7110 C.2   101  TYR101      0.2264
     78  O        -64.5870  -20.3890  -13.2410 O.2   101  TYR101     -0.2867
     79  CB       -61.4390  -19.7280  -12.4390 C.3   101  TYR101      0.0534
     80  CG       -62.2350  -18.6360  -11.7610 C.ar  101  TYR101     -0.0201
     81  CD1      -62.6210  -18.7500  -10.4250 C.ar  101  TYR101     -0.0009
     82  CD2      -62.5840  -17.4640  -12.4620 C.ar  101  TYR101     -0.0009
     83  CE1      -63.3260  -17.7270   -9.8000 C.ar  101  TYR101      0.0417
     84  CE2      -63.2870  -16.4430  -11.8450 C.ar  101  TYR101      0.0417
     85  CZ       -63.6540  -16.5790  -10.5150 C.ar  101  TYR101      0.1957
     86  OH       -64.3380  -15.5560   -9.8890 O.3   101  TYR101     -0.2866
     87  N        -68.7520  -13.2390   -0.7070 N.3   148  LYS148     -0.1245
     88  CA       -67.5920  -12.9450   -1.5520 C.3   148  LYS148      0.1561
     89  C        -68.0300  -12.7880   -3.0160 C.2   148  LYS148      0.2260
     90  O        -67.6230  -11.8610   -3.7060 O.2   148  LYS148     -0.2867
     91  CB       -66.5580  -14.0630   -1.4200 C.3   148  LYS148      0.0271
     92  CG       -65.3290  -13.8680   -2.3030 C.3   148  LYS148      0.0035
     93  CD       -64.1960  -14.7740   -1.8260 C.3   148  LYS148      0.0206
     94  CE       -63.3860  -14.1150   -0.6960 C.3   148  LYS148      0.1093
     95  NZ       -62.4350  -13.0780   -1.2380 N.3   148  LYS148     -0.1314
     96  N        -67.9900   -8.8510   -5.5370 N.3   152  GLY152     -0.1210
     97  CA       -66.9150   -8.9080   -6.5130 C.3   152  GLY152      0.1956
     98  C        -65.6230   -9.6040   -6.1230 C.2   152  GLY152      0.2612
     99  O        -64.5480   -9.2200   -6.5950 O.2   152  GLY152     -0.2717
    100  N        -65.7070  -10.6320   -5.2840 N.am  153  GLY153     -0.1942
    101  CA       -64.5050  -11.3320   -4.8740 C.3   153  GLY153      0.2014
    102  C        -63.7000  -10.6070   -3.8050 C.2   153  GLY153      0.2639
    103  O        -62.6000  -11.0400   -3.4830 O.2   153  GLY153     -0.2714
    104  N        -64.2070   -9.5060   -3.2610 N.am  154  LEU154     -0.1963
    105  CA       -63.4780   -8.7880   -2.2110 C.3   154  LEU154      0.1713
    106  C        -63.2140   -9.6670   -0.9600 C.2   154  LEU154      0.2458
    107  O        -63.9810  -10.5830   -0.6480 O.2   154  LEU154     -0.2730
    108  CB       -64.2840   -7.5700   -1.7390 C.3   154  LEU154      0.0310
    109  CG       -64.3260   -6.3010   -2.6050 C.3   154  LEU154      0.0022
    110  CD1      -65.3810   -5.3510   -2.0570 C.3   154  LEU154      0.0001
    111  CD2      -62.9430   -5.6310   -2.6320 C.3   154  LEU154      0.0001
    112  N        -62.1130   -9.3970   -0.2440 N.am  155  PRO155     -0.2727
    113  CA       -61.8220  -10.1730    0.9590 C.3   155  PRO155      0.1402
    114  C        -62.8550   -9.7220    1.9980 C.2   155  PRO155      0.2269
    115  O        -63.3820   -8.5860    1.9340 O.2   155  PRO155     -0.2865
    116  CB       -60.3860   -9.7690    1.3130 C.3   155  PRO155      0.0296
    117  CG       -60.2290   -8.4330    0.6880 C.3   155  PRO155      0.0237
    118  CD       -60.9680   -8.5480   -0.6180 C.3   155  PRO155      0.0939
    119  N        -43.9500  -15.9930   -9.8370 N.3   469  PRO469     -0.2102
    120  CA       -45.3160  -15.4990  -10.0650 C.3   469  PRO469      0.1504
    121  C        -46.3420  -16.5070  -10.5790 C.2   469  PRO469      0.2576
    122  O        -47.4600  -16.6130  -10.0510 O.2   469  PRO469     -0.2718
    123  CB       -45.1060  -14.3450  -11.0550 C.3   469  PRO469      0.0282
    124  CG       -43.9290  -14.8130  -11.8660 C.3   469  PRO469      0.0208
    125  CD       -42.9970  -15.3590  -10.7670 C.3   469  PRO469      0.0893
    126  N        -45.9680  -17.2710  -11.5930 N.am  470  SER470     -0.1938
    127  CA       -46.9290  -18.1840  -12.1600 C.3   470  SER470      0.2055
    128  C        -46.4890  -19.6110  -12.3780 C.2   470  SER470      0.2643
    129  O        -45.3480  -19.9950  -12.0540 O.2   470  SER470     -0.2714
    130  CB       -47.4120  -17.5820  -13.4800 C.3   470  SER470      0.2130
    131  OG       -47.8910  -16.2710  -13.2220 O.3   470  SER470     -0.2179
    132  N        -47.4200  -20.3850  -12.9320 N.am  471  GLY471     -0.1954
    133  CA       -47.1680  -21.7810  -13.2330 C.3   471  GLY471      0.1869
    134  C        -47.2020  -22.7010  -12.0270 C.2   471  GLY471      0.2309
    135  O        -46.8790  -23.8920  -12.1440 O.2   471  GLY471     -0.2863
@<TRIPOS>BOND
     1    73    74    2
     2    73    72    1
     3    72    71    1
     4    71    61   am
     5    59    60    1
     6    61    60    1
     7    61    62    2
     8    77    78    2
     9    77    76    1
    10    75    76    1
    11    60    63    1
    12   130   131    1
    13   130   127    1
    14   133   132    1
    15   133   134    1
    16   132   128   am
    17    76    79    1
    18    82    84   ar
    19    82    80   ar
    20    79    80    1
    21   128   127    1
    22   128   129    2
    23    63    64    1
    24   127   126    1
    25   135   134    2
    26   124   123    1
    27   124   125    1
    28    84    85   ar
    29    80    81   ar
    30    23    22    1
    31   126   121   am
    32    65    64   ar
    33    65    67   ar
    34    64    66   ar
    35   123   120    1
    36   125   119    1
    37    67    69   ar
    38    22    20   ar
    39    22    21   ar
    40    20    18   ar
    41   121   120    1
    42   121   122    2
    43    66    68   ar
    44    85    86    1
    45    85    83   ar
    46    81    83   ar
    47   120   119    1
    48    35    33   ar
    49    69    68   ar
    50    69    70    1
    51    58    57    1
    52    56    57   ar
    53    56    54   ar
    54    21    19   ar
    55    18    17   ar
    56    57    55   ar
    57    54    52   ar
    58    50    49    2
    59    33    34   ar
    60    33    32    1
    61    55    53   ar
    62    52    53   ar
    63    52    51    1
    64    51    48    1
    65    19    17   ar
    66    17    16    1
    67    48    49    1
    68    48    47    1
    69    32    29    1
    70    24    25    1
    71    24    14   am
    72    25    26    1
    73    27    26    2
    74    26    28   am
    75    16    13    1
    76    13    14    1
    77    13    12    1
    78    28    29    1
    79    29    30    1
    80    14    15    2
    81    99    98    2
    82    97    98    1
    83    97    96    1
    84    11    10    2
    85    98   100   am
    86    12    10   am
    87    10     9    1
    88    31    30    2
    89     6     5    1
    90   100   101    1
    91   101   102    1
    92     4     3    2
    93     9     8    1
    94     5     7    1
    95     5     2    1
    96     3     8   am
    97     3     2    1
    98   102   103    2
    99   102   104   am
   100    90    89    2
   101     2     1    1
   102   104   105    1
   103    89    88    1
   104    44    46   ar
   105    44    42   ar
   106   111   109    1
   107   109   110    1
   108   109   108    1
   109    46    45   ar
   110    92    93    1
   111    92    91    1
   112   105   108    1
   113   105   106    1
   114    93    94    1
   115    42    41   ar
   116    88    91    1
   117    88    87    1
   118    95    94    1
   119    45    43   ar
   120   106   107    2
   121   106   112   am
   122   118   112    1
   123   118   117    1
   124    41    43   ar
   125    41    40    1
   126   112   113    1
   127   117   116    1
   128    40    37    1
   129   113   116    1
   130   113   114    1
   131    36    37    1
   132   115   114    2
   133    37    38    1
   134    38    39    2
