@<TRIPOS>MOLECULE
tmp/1eszA00.pdb
 203 202 0 0 0
SMALL
GASTEIGER

@<TRIPOS>ATOM
      1  N         24.7590  -14.8740  -21.2260 N.3    10  GLU10      -0.1231
      2  CA        24.9370  -14.4490  -22.6080 C.3    10  GLU10       0.1699
      3  C         24.4680  -15.6190  -23.4640 C.2    10  GLU10       0.2592
      4  O         24.5080  -16.7700  -23.0190 O.2    10  GLU10      -0.2718
      5  CB        26.4090  -14.0980  -22.8620 C.3    10  GLU10       0.0402
      6  CG        26.6090  -13.0400  -23.9420 C.3    10  GLU10       0.1161
      7  CD        26.1810  -13.5340  -25.3010 C.2    10  GLU10       0.3649
      8  OE1       26.8550  -14.4440  -25.8250 O.co2  10  GLU10      -0.2457
      9  OE2       25.1700  -13.0230  -25.8380 O.co2  10  GLU10      -0.2457
     10  N         24.0160  -15.3390  -24.6800 N.am   11  TRP11      -0.1962
     11  CA        23.4820  -16.3910  -25.5340 C.3    11  TRP11       0.1771
     12  C         24.4420  -17.4510  -26.0800 C.2    11  TRP11       0.2619
     13  O         24.0000  -18.5440  -26.4370 O.2    11  TRP11      -0.2715
     14  CB        22.6860  -15.7740  -26.6890 C.3    11  TRP11       0.0590
     15  CG        21.6000  -14.8260  -26.2330 C.ar   11  TRP11       0.0006
     16  CD1       20.9530  -14.8320  -25.0250 C.ar   11  TRP11       0.0946
     17  CD2       21.0470  -13.7360  -26.9760 C.ar   11  TRP11       0.0152
     18  NE1       20.0370  -13.8070  -24.9710 N.ar   11  TRP11      -0.2442
     19  CE2       20.0720  -13.1190  -26.1550 C.ar   11  TRP11       0.0810
     20  CE3       21.2810  -13.2180  -28.2590 C.ar   11  TRP11       0.0012
     21  CZ2       19.3310  -12.0040  -26.5760 C.ar   11  TRP11       0.0191
     22  CZ3       20.5400  -12.1060  -28.6790 C.ar   11  TRP11       0.0001
     23  CH2       19.5790  -11.5140  -27.8370 C.ar   11  TRP11       0.0015
     24  N         25.7380  -17.1520  -26.1490 N.am   12  LEU12      -0.1977
     25  CA        26.6940  -18.1470  -26.6480 C.3    12  LEU12       0.1596
     26  C         26.6710  -19.3950  -25.7460 C.2    12  LEU12       0.2287
     27  O         26.4320  -20.5060  -26.2240 O.2    12  LEU12      -0.2864
     28  CB        28.1100  -17.5510  -26.7150 C.3    12  LEU12       0.0297
     29  CG        29.2850  -18.5110  -26.9640 C.3    12  LEU12       0.0022
     30  CD1       29.0760  -19.2530  -28.2750 C.3    12  LEU12       0.0001
     31  CD2       30.6110  -17.7190  -27.0020 C.3    12  LEU12       0.0001
     32  N         17.8860  -12.0370  -20.9740 N.3    29  ASP29      -0.1239
     33  CA        17.1310  -11.5800  -22.1410 C.3    29  ASP29       0.1674
     34  C         16.5290  -12.7180  -22.9750 C.2    29  ASP29       0.2266
     35  O         16.8790  -12.9050  -24.1490 O.2    29  ASP29      -0.2867
     36  CB        18.0380  -10.6940  -23.0100 C.3    29  ASP29       0.1410
     37  CG        17.2590   -9.8510  -24.0160 C.2    29  ASP29       0.3668
     38  OD1       17.8960   -9.0660  -24.7560 O.co2  29  ASP29      -0.2456
     39  OD2       16.0160   -9.9730  -24.0690 O.co2  29  ASP29      -0.2456
     40  N         14.5150  -11.4930  -26.3530 N.3    32  ASN32      -0.1240
     41  CA        15.2880  -11.3190  -27.5690 C.3    32  ASN32       0.1653
     42  C         16.0210  -12.5720  -28.0090 C.2    32  ASN32       0.2266
     43  O         16.3610  -12.7090  -29.1820 O.2    32  ASN32      -0.2867
     44  CB        16.2360  -10.1370  -27.3990 C.3    32  ASN32       0.1155
     45  CG        15.4830   -8.8250  -27.2870 C.2    32  ASN32       0.2627
     46  OD1       14.7460   -8.4510  -28.1970 O.2    32  ASN32      -0.2716
     47  ND2       15.6530   -8.1270  -26.1690 N.am   32  ASN32      -0.0877
     48  N         16.1130  -13.4750  -31.8640 N.3    36  TRP36      -0.1241
     49  CA        17.4030  -13.3210  -32.5390 C.3    36  TRP36       0.1605
     50  C         18.0850  -14.6740  -32.7480 C.2    36  TRP36       0.2264
     51  O         18.7810  -14.8790  -33.7470 O.2    36  TRP36      -0.2867
     52  CB        18.3400  -12.3990  -31.7540 C.3    36  TRP36       0.0550
     53  CG        17.9930  -10.9540  -31.8550 C.ar   36  TRP36       0.0003
     54  CD1       17.1400  -10.2530  -31.0510 C.ar   36  TRP36       0.0946
     55  CD2       18.4860  -10.0210  -32.8250 C.ar   36  TRP36       0.0152
     56  NE1       17.0730   -8.9400  -31.4570 N.ar   36  TRP36      -0.2442
     57  CE2       17.8900   -8.7710  -32.5430 C.ar   36  TRP36       0.0810
     58  CE3       19.3750  -10.1200  -33.9030 C.ar   36  TRP36       0.0012
     59  CZ2       18.1580   -7.6250  -33.3020 C.ar   36  TRP36       0.0191
     60  CZ3       19.6410   -8.9830  -34.6550 C.ar   36  TRP36       0.0001
     61  CH2       19.0340   -7.7510  -34.3500 C.ar   36  TRP36       0.0015
     62  N         21.6280   -8.9520  -21.0520 N.3    52  ARG52      -0.1231
     63  CA        22.9870   -9.4800  -21.0100 C.3    52  ARG52       0.1694
     64  C         23.9700   -8.3970  -20.6050 C.2    52  ARG52       0.2592
     65  O         24.9740   -8.6770  -19.9570 O.2    52  ARG52      -0.2718
     66  CB        23.3880  -10.0380  -22.3820 C.3    52  ARG52       0.0321
     67  CG        22.4570  -11.1160  -22.8920 C.3    52  ARG52       0.0489
     68  CD        21.9240  -10.7330  -24.2500 C.3    52  ARG52       0.2205
     69  NE        22.9190  -10.9140  -25.2890 N.pl3  52  ARG52      -0.0865
     70  CZ        23.0220  -10.1720  -26.3880 C.cat  52  ARG52       0.5346
     71  NH1       22.1950   -9.1610  -26.6180 N.pl3  52  ARG52       0.1354
     72  NH2       23.9550  -10.4670  -27.2760 N.pl3  52  ARG52       0.1354
     73  N         23.6710   -7.1590  -20.9850 N.am   53  THR53      -0.1953
     74  CA        24.5430   -6.0300  -20.6730 C.3    53  THR53       0.1897
     75  C         24.2890   -5.4170  -19.3010 C.2    53  THR53       0.2313
     76  O         25.0640   -4.5880  -18.8390 O.2    53  THR53      -0.2863
     77  CB        24.3870   -4.9190  -21.7190 C.3    53  THR53       0.1794
     78  OG1       23.0060   -4.5590  -21.8130 O.3    53  THR53      -0.2208
     79  CG2       24.8730   -5.3970  -23.0850 C.3    53  THR53       0.0378
     80  N         29.9570  -14.6940  -21.9540 N.3    71  SER71      -0.1202
     81  CA        30.8790  -14.5030  -23.0740 C.3    71  SER71       0.2020
     82  C         32.0600  -13.6150  -22.6800 C.2    71  SER71       0.2619
     83  O         31.8840  -12.5570  -22.0680 O.2    71  SER71      -0.2717
     84  CB        30.1610  -13.8700  -24.2690 C.3    71  SER71       0.2103
     85  OG        29.3020  -14.7940  -24.9110 O.3    71  SER71      -0.2182
     86  N         33.2570  -14.0540  -23.0580 N.am   72  ALA72      -0.1965
     87  CA        34.5000  -13.3430  -22.7690 C.3    72  ALA72       0.1728
     88  C         34.4840  -11.9090  -23.2950 C.2    72  ALA72       0.2617
     89  O         34.1090  -11.6670  -24.4420 O.2    72  ALA72      -0.2715
     90  CB        35.6840  -14.1070  -23.3850 C.3    72  ALA72       0.0334
     91  N         34.9010  -10.9680  -22.4490 N.am   73  GLY73      -0.1940
     92  CA        34.9440   -9.5720  -22.8490 C.3    73  GLY73       0.2014
     93  C         33.6050   -8.9150  -23.1500 C.2    73  GLY73       0.2639
     94  O         33.5700   -7.8290  -23.7370 O.2    73  GLY73      -0.2714
     95  N         32.5080   -9.5580  -22.7500 N.am   74  TYR74      -0.1959
     96  CA        31.1640   -9.0220  -22.9860 C.3    74  TYR74       0.1771
     97  C         30.3580   -8.9970  -21.6790 C.2    74  TYR74       0.2620
     98  O         30.4070   -9.9400  -20.8910 O.2    74  TYR74      -0.2715
     99  CB        30.4230   -9.8900  -24.0150 C.3    74  TYR74       0.0574
    100  CG        29.1100   -9.3000  -24.5240 C.ar   74  TYR74      -0.0198
    101  CD1       29.0750   -8.5330  -25.6880 C.ar   74  TYR74      -0.0009
    102  CD2       27.9110   -9.5090  -23.8380 C.ar   74  TYR74      -0.0009
    103  CE1       27.8770   -7.9870  -26.1640 C.ar   74  TYR74       0.0417
    104  CE2       26.7030   -8.9670  -24.3010 C.ar   74  TYR74       0.0417
    105  CZ        26.6950   -8.2100  -25.4680 C.ar   74  TYR74       0.1957
    106  OH        25.5080   -7.7020  -25.9620 O.3    74  TYR74      -0.2866
    107  N         29.6250   -7.9140  -21.4450 N.am   75  GLY75      -0.1954
    108  CA        28.8140   -7.8270  -20.2400 C.3    75  GLY75       0.1869
    109  C         29.5280   -7.4200  -18.9640 C.2    75  GLY75       0.2309
    110  O         30.5420   -6.7260  -19.0100 O.2    75  GLY75      -0.2863
    111  N         34.2070  -16.6350  -28.0580 N.3    92  PHE92      -0.1241
    112  CA        33.4510  -16.8250  -29.2830 C.3    92  PHE92       0.1605
    113  C         34.4020  -17.2040  -30.4090 C.2    92  PHE92       0.2264
    114  O         34.0410  -17.9500  -31.3140 O.2    92  PHE92      -0.2867
    115  CB        32.7430  -15.5360  -29.6840 C.3    92  PHE92       0.0534
    116  CG        32.2060  -15.5630  -31.0830 C.ar   92  PHE92      -0.0203
    117  CD1       31.1740  -16.4290  -31.4250 C.ar   92  PHE92      -0.0042
    118  CD2       32.7490  -14.7390  -32.0710 C.ar   92  PHE92      -0.0042
    119  CE1       30.6860  -16.4800  -32.7220 C.ar   92  PHE92      -0.0003
    120  CE2       32.2610  -14.7860  -33.3770 C.ar   92  PHE92      -0.0003
    121  CZ        31.2290  -15.6580  -33.6990 C.ar   92  PHE92      -0.0000
    122  N         22.2700   -7.9600  -42.1020 N.3   149  THR149     -0.1218
    123  CA        21.1190   -7.7810  -41.2360 C.3   149  THR149      0.1862
    124  C         20.9950   -6.2750  -41.0310 C.2   149  THR149      0.2287
    125  O         21.9950   -5.5680  -40.8780 O.2   149  THR149     -0.2866
    126  CB        21.2570   -8.5300  -39.8780 C.3   149  THR149      0.1770
    127  OG1       19.9920   -8.4970  -39.1970 O.3   149  THR149     -0.2211
    128  CG2       22.3210   -7.9000  -38.9950 C.3   149  THR149      0.0375
    129  N         20.3520   -2.9980  -39.1050 N.3   151  ILE151     -0.1245
    130  CA        20.4160   -2.4860  -37.7410 C.3   151  ILE151      0.1561
    131  C         19.3640   -1.3910  -37.5940 C.2   151  ILE151      0.2260
    132  O         18.5910   -1.3720  -36.6380 O.2   151  ILE151     -0.2867
    133  CB        21.8030   -1.8970  -37.4360 C.3   151  ILE151      0.0252
    134  CG1       22.8720   -2.9750  -37.6300 C.3   151  ILE151      0.0019
    135  CG2       21.8420   -1.3720  -36.0090 C.3   151  ILE151      0.0019
    136  CD1       24.2870   -2.4640  -37.4800 C.3   151  ILE151      0.0001
    137  N         24.5220   -4.3740  -40.9890 N.3   157  LEU157     -0.1245
    138  CA        25.6200   -5.1600  -40.4570 C.3   157  LEU157      0.1561
    139  C         25.9800   -6.1500  -41.5580 C.2   157  LEU157      0.2260
    140  O         25.0960   -6.7230  -42.2010 O.2   157  LEU157     -0.2867
    141  CB        25.1950   -5.9310  -39.2080 C.3   157  LEU157      0.0270
    142  CG        25.8040   -5.5310  -37.8630 C.3   157  LEU157      0.0019
    143  CD1       25.3830   -6.5640  -36.8100 C.3   157  LEU157      0.0001
    144  CD2       27.3220   -5.4700  -37.9570 C.3   157  LEU157      0.0001
    145  N         35.0840   -6.4780  -37.0710 N.3   183  ASN183     -0.1240
    146  CA        35.4230   -6.3730  -35.6700 C.3   183  ASN183      0.1653
    147  C         35.8480   -7.7880  -35.2560 C.2   183  ASN183      0.2266
    148  O         35.8960   -8.7050  -36.0880 O.2   183  ASN183     -0.2867
    149  CB        34.2230   -5.8910  -34.8330 C.3   183  ASN183      0.1155
    150  CG        32.9760   -6.7340  -35.0480 C.2   183  ASN183      0.2627
    151  OD1       33.0540   -7.9410  -35.2580 O.2   183  ASN183     -0.2716
    152  ND2       31.8120   -6.0930  -34.9790 N.am  183  ASN183     -0.0877
    153  N         34.3240  -10.0650  -33.6570 N.3   185  TRP185     -0.1241
    154  CA        33.2850  -11.0550  -33.8910 C.3   185  TRP185      0.1605
    155  C         32.9120  -11.3080  -35.3530 C.2   185  TRP185      0.2264
    156  O         31.9690  -12.0480  -35.6320 O.2   185  TRP185     -0.2867
    157  CB        32.0490  -10.6770  -33.0660 C.3   185  TRP185      0.0550
    158  CG        32.3830  -10.4970  -31.6140 C.ar  185  TRP185      0.0003
    159  CD1       32.3420  -11.4480  -30.6320 C.ar  185  TRP185      0.0946
    160  CD2       32.8930   -9.3070  -30.9970 C.ar  185  TRP185      0.0152
    161  NE1       32.7950  -10.9210  -29.4430 N.ar  185  TRP185     -0.2442
    162  CE2       33.1400   -9.6100  -29.6400 C.ar  185  TRP185      0.0810
    163  CE3       33.1710   -8.0140  -31.4640 C.ar  185  TRP185      0.0012
    164  CZ2       33.6510   -8.6680  -28.7400 C.ar  185  TRP185      0.0191
    165  CZ3       33.6820   -7.0750  -30.5720 C.ar  185  TRP185      0.0001
    166  CH2       33.9170   -7.4100  -29.2220 C.ar  185  TRP185      0.0015
    167  N         21.4140  -16.5570  -35.2520 N.3   241  TRP241     -0.1227
    168  CA        22.3290  -15.8430  -34.3760 C.3   241  TRP241      0.1737
    169  C         23.7400  -15.9270  -34.9400 C.2   241  TRP241      0.2595
    170  O         24.2790  -17.0110  -35.0920 O.2   241  TRP241     -0.2718
    171  CB        22.2920  -16.4290  -32.9680 C.3   241  TRP241      0.0564
    172  CG        23.0490  -15.6010  -31.9650 C.ar  241  TRP241      0.0003
    173  CD1       23.8760  -16.0630  -30.9840 C.ar  241  TRP241      0.0946
    174  CD2       23.0360  -14.1730  -31.8410 C.ar  241  TRP241      0.0152
    175  NE1       24.3820  -15.0130  -30.2540 N.ar  241  TRP241     -0.2442
    176  CE2       23.8830  -13.8400  -30.7610 C.ar  241  TRP241      0.0810
    177  CE3       22.3920  -13.1400  -32.5400 C.ar  241  TRP241      0.0012
    178  CZ2       24.1040  -12.5170  -30.3610 C.ar  241  TRP241      0.0191
    179  CZ3       22.6130  -11.8260  -32.1460 C.ar  241  TRP241      0.0001
    180  CH2       23.4620  -11.5250  -31.0660 C.ar  241  TRP241      0.0015
    181  N         24.3480  -14.7810  -35.2250 N.am  242  PHE242     -0.1962
    182  CA        25.6910  -14.7700  -35.8050 C.3   242  PHE242      0.1771
    183  C         26.8670  -14.8390  -34.8330 C.2   242  PHE242      0.2619
    184  O         28.0230  -14.9550  -35.2550 O.2   242  PHE242     -0.2715
    185  CB        25.8330  -13.5500  -36.7170 C.3   242  PHE242      0.0574
    186  CG        24.8670  -12.4500  -36.4010 C.ar  242  PHE242     -0.0200
    187  CD1       25.1720  -11.4910  -35.4470 C.ar  242  PHE242     -0.0042
    188  CD2       23.6400  -12.3860  -37.0480 C.ar  242  PHE242     -0.0042
    189  CE1       24.2640  -10.4730  -35.1400 C.ar  242  PHE242     -0.0003
    190  CE2       22.7260  -11.3770  -36.7500 C.ar  242  PHE242     -0.0003
    191  CZ        23.0390  -10.4180  -35.7950 C.ar  242  PHE242     -0.0000
    192  N         26.5780  -14.7770  -33.5390 N.am  243  TYR243     -0.1974
    193  CA        27.6200  -14.8440  -32.5290 C.3   243  TYR243      0.1639
    194  C         27.4360  -16.0970  -31.6670 C.2   243  TYR243      0.2290
    195  O         27.8400  -16.1240  -30.5050 O.2   243  TYR243     -0.2864
    196  CB        27.5760  -13.5840  -31.6610 C.3   243  TYR243      0.0560
    197  CG        27.6770  -12.2920  -32.4590 C.ar  243  TYR243     -0.0198
    198  CD1       26.9300  -11.1700  -32.0990 C.ar  243  TYR243     -0.0009
    199  CD2       28.5200  -12.1970  -33.5680 C.ar  243  TYR243     -0.0009
    200  CE1       27.0170   -9.9790  -32.8280 C.ar  243  TYR243      0.0417
    201  CE2       28.6190  -11.0140  -34.3050 C.ar  243  TYR243      0.0417
    202  CZ        27.8650   -9.9090  -33.9300 C.ar  243  TYR243      0.1957
    203  OH        27.9530   -8.7360  -34.6490 O.3   243  TYR243     -0.2866
@<TRIPOS>BOND
     1   140   139    2
     2   122   123    1
     3   139   138    1
     4   123   124    1
     5   123   126    1
     6   124   125    2
     7   137   138    1
     8   138   141    1
     9   126   127    1
    10   126   128    1
    11   141   142    1
    12   129   130    1
    13   144   142    1
    14   142   143    1
    15   130   131    1
    16   130   133    1
    17   134   136    1
    18   134   133    1
    19   131   132    2
    20   133   135    1
    21   145   146    1
    22   188   190   ar
    23   188   186   ar
    24   190   191   ar
    25   185   186    1
    26   185   182    1
    27   186   187   ar
    28   148   147    2
    29   182   181    1
    30   182   183    1
    31   191   189   ar
    32   146   147    1
    33   146   149    1
    34   156   155    2
    35   187   189   ar
    36   155   154    1
    37   151   150    2
    38   184   183    2
    39   167   168    1
    40   181   169   am
    41   170   169    2
    42   150   152   am
    43   150   149    1
    44   169   168    1
    45   183   192   am
    46    60    61   ar
    47    60    58   ar
    48   203   202    1
    49   168   171    1
    50    61    59   ar
    51   201   202   ar
    52   201   199   ar
    53   202   200   ar
    54    58    55   ar
    55   154   153    1
    56   154   157    1
    57    51    50    2
    58   121   120   ar
    59   121   119   ar
    60   199   197   ar
    61   192   193    1
    62   120   118   ar
    63    59    57   ar
    64   157   158    1
    65   171   172    1
    66   200   198   ar
    67    55    57   ar
    68    55    53   ar
    69    50    49    1
    70   119   117   ar
    71    57    56   ar
    72   177   179   ar
    73   177   174   ar
    74    49    48    1
    75    49    52    1
    76   193   194    1
    77   193   196    1
    78   197   198   ar
    79   197   196    1
    80   179   180   ar
    81   118   116   ar
    82   172   174   ar
    83   172   173   ar
    84    53    52    1
    85    53    54   ar
    86   174   176   ar
    87   194   195    2
    88   158   160   ar
    89   158   159   ar
    90   163   160   ar
    91   163   165   ar
    92    56    54   ar
    93   117   116   ar
    94   114   113    2
    95   116   115    1
    96   180   178   ar
    97   160   162   ar
    98   173   175   ar
    99   176   178   ar
   100   176   175   ar
   101   159   161   ar
   102   165   166   ar
   103   113   112    1
   104   115   112    1
   105   162   161   ar
   106   162   164   ar
   107   112   111    1
   108   166   164   ar
   109    43    42    2
   110    22    20   ar
   111    22    23   ar
   112    30    29    1
   113    20    17   ar
   114    46    45    2
   115    42    41    1
   116    23    21   ar
   117    41    44    1
   118    41    40    1
   119    44    45    1
   120    45    47   am
   121    72    70    1
   122    31    29    1
   123    17    15   ar
   124    17    19   ar
   125    29    28    1
   126    28    25    1
   127    14    15    1
   128    14    11    1
   129    25    24    1
   130    25    26    1
   131    71    70    1
   132    21    19   ar
   133    13    12    2
   134    70    69    2
   135    15    16   ar
   136    27    26    2
   137   103   101   ar
   138   103   105   ar
   139    19    18   ar
   140    24    12   am
   141    12    11    1
   142   106   105    1
   143     9     7   ar
   144     8     7   ar
   145   101   100   ar
   146    11    10    1
   147   105   104   ar
   148     7     6    1
   149    69    68    1
   150    16    18   ar
   151    85    84    1
   152    38    37   ar
   153    10     3   am
   154   100    99    1
   155   100   102   ar
   156    89    88    2
   157   104   102   ar
   158    84    81    1
   159    68    67    1
   160    35    34    2
   161    39    37   ar
   162    37    36    1
   163    99    96    1
   164     6     5    1
   165    94    93    2
   166     3     4    2
   167     3     2    1
   168    90    87    1
   169    88    87    1
   170    88    91   am
   171    93    92    1
   172    93    95   am
   173    79    77    1
   174    81    82    1
   175    81    80    1
   176    86    87    1
   177    86    82   am
   178    36    33    1
   179    96    95    1
   180    96    97    1
   181    34    33    1
   182    67    66    1
   183     5     2    1
   184    92    91    1
   185    82    83    2
   186     2     1    1
   187    66    63    1
   188    33    32    1
   189    78    77    1
   190    77    74    1
   191    97   107   am
   192    97    98    2
   193   107   108    1
   194    62    63    1
   195    63    64    1
   196    73    74    1
   197    73    64   am
   198    74    75    1
   199    64    65    2
   200   108   109    1
   201    75    76    2
   202   110   109    2
