@<TRIPOS>MOLECULE
tmp/1et0A00.pdb
 149 139 0 0 0
SMALL
GASTEIGER

@<TRIPOS>ATOM
      1  N          2.8980   10.3220   56.3030 N.3    26  PHE26      -0.1241
      2  CA         2.1200   11.1760   55.4160 C.3    26  PHE26       0.1605
      3  C          1.7010   12.4870   56.0830 C.2    26  PHE26       0.2264
      4  O          1.8690   12.6600   57.2930 O.2    26  PHE26      -0.2867
      5  CB         0.8710   10.4180   54.9200 C.3    26  PHE26       0.0534
      6  CG        -0.2240   10.2750   55.9560 C.ar   26  PHE26      -0.0203
      7  CD1       -0.0710    9.4270   57.0510 C.ar   26  PHE26      -0.0042
      8  CD2       -1.4150   10.9890   55.8260 C.ar   26  PHE26      -0.0042
      9  CE1       -1.0880    9.2940   58.0010 C.ar   26  PHE26      -0.0003
     10  CE2       -2.4340   10.8660   56.7640 C.ar   26  PHE26      -0.0003
     11  CZ        -2.2690   10.0120   57.8610 C.ar   26  PHE26      -0.0000
     12  N         -1.4580   15.7620   55.5400 N.3    28  THR28      -0.1218
     13  CA        -2.5810   16.3070   54.7950 C.3    28  THR28       0.1862
     14  C         -2.5970   17.8050   55.0320 C.2    28  THR28       0.2287
     15  O         -2.6830   18.2670   56.1670 O.2    28  THR28      -0.2866
     16  CB        -3.9210   15.6560   55.1930 C.3    28  THR28       0.1770
     17  OG1       -4.0390   15.6220   56.6120 O.3    28  THR28      -0.2211
     18  CG2       -4.0050   14.2380   54.6620 C.3    28  THR28       0.0375
     19  N          7.6160   18.2140   59.3490 N.3    45  ARG45      -0.1245
     20  CA         6.9980   17.0860   60.0350 C.3    45  ARG45       0.1563
     21  C          7.2680   15.7890   59.2370 C.2    45  ARG45       0.2260
     22  O          7.3050   14.6900   59.7980 O.2    45  ARG45      -0.2867
     23  CB         5.4910   17.3230   60.2550 C.3    45  ARG45       0.0307
     24  CG         4.5690   17.0790   59.0660 C.3    45  ARG45       0.0489
     25  CD         3.7230   15.8060   59.2300 C.3    45  ARG45       0.2205
     26  NE         2.9820   15.7700   60.4890 N.pl3  45  ARG45      -0.0865
     27  CZ         1.7290   16.1870   60.6550 C.cat  45  ARG45       0.5346
     28  NH1        1.0410   16.6840   59.6380 N.pl3  45  ARG45       0.1354
     29  NH2        1.1580   16.1100   61.8540 N.pl3  45  ARG45       0.1354
     30  N          3.2960   10.8530   62.2620 N.3   128  LYS128     -0.1245
     31  CA         2.1020   10.6800   61.4380 C.3   128  LYS128      0.1561
     32  C          2.4540    9.5900   60.4140 C.2   128  LYS128      0.2260
     33  O          2.5930    9.8560   59.2130 O.2   128  LYS128     -0.2867
     34  CB         1.7320   11.9930   60.7280 C.3   128  LYS128      0.0271
     35  CG         0.3050   12.0270   60.1830 C.3   128  LYS128      0.0035
     36  CD        -0.0530   13.3500   59.5250 C.3   128  LYS128      0.0206
     37  CE        -1.5490   13.4410   59.3080 C.3   128  LYS128      0.1093
     38  NZ        -2.1450   13.1580   60.6130 N.3   128  LYS128     -0.1314
     39  N         -2.4320    3.4430   60.5750 N.3   132  ARG132     -0.1245
     40  CA        -3.5780    4.1340   61.1620 C.3   132  ARG132      0.1563
     41  C         -4.8110    3.2630   61.3020 C.2   132  ARG132      0.2260
     42  O         -5.9280    3.7440   61.1710 O.2   132  ARG132     -0.2867
     43  CB        -3.9150    5.3710   60.3330 C.3   132  ARG132      0.0307
     44  CG        -2.7260    6.2850   60.0770 C.3   132  ARG132      0.0489
     45  CD        -2.5550    7.3710   61.1370 C.3   132  ARG132      0.2205
     46  NE        -2.2420    6.8880   62.4870 N.pl3 132  ARG132     -0.0865
     47  CZ        -1.1200    7.1700   63.1450 C.cat 132  ARG132      0.5346
     48  NH1       -0.1800    7.9120   62.5840 N.pl3 132  ARG132      0.1354
     49  NH2       -0.9660    6.7760   64.3990 N.pl3 132  ARG132      0.1354
     50  N         -7.1310    4.2710   64.1400 N.3   135  GLN135     -0.1245
     51  CA        -8.0190    5.3670   63.7280 C.3   135  GLN135      0.1566
     52  C         -9.1830    4.8620   62.8810 C.2   135  GLN135      0.2260
     53  O        -10.2780    5.4180   62.9360 O.2   135  GLN135     -0.2867
     54  CB        -7.2610    6.4680   62.9740 C.3   135  GLN135      0.0367
     55  CG        -6.4360    7.3820   63.8620 C.3   135  GLN135      0.0905
     56  CD        -5.2900    6.6440   64.5440 C.2   135  GLN135      0.2608
     57  OE1       -4.6210    5.8210   63.9300 O.2   135  GLN135     -0.2717
     58  NE2       -5.0710    6.9300   65.8230 N.am  135  GLN135     -0.0878
     59  N         -6.1710   12.1770   72.5960 N.3   161  GLU161     -0.1245
     60  CA        -6.6220   13.0400   71.5170 C.3   161  GLU161      0.1567
     61  C         -7.9780   12.5970   71.0190 C.2   161  GLU161      0.2260
     62  O         -8.7720   12.0460   71.7810 O.2   161  GLU161     -0.2867
     63  CB        -5.6070   13.0590   70.3650 C.3   161  GLU161      0.0388
     64  CG        -5.3290   11.7080   69.7180 C.3   161  GLU161      0.1160
     65  CD        -4.8200   11.8560   68.2940 C.2   161  GLU161      0.3649
     66  OE1       -5.6370   12.1600   67.4000 O.co2 161  GLU161     -0.2457
     67  OE2       -3.6070   11.6880   68.0670 O.co2 161  GLU161     -0.2457
     68  N        -10.1060   11.3050   67.1230 N.3   163  CYS163     -0.1221
     69  CA        -9.8240   10.3540   66.0560 C.3   163  CYS163      0.1808
     70  C         -8.8380   10.9070   65.0280 C.2   163  CYS163      0.2601
     71  O         -7.8450   10.2540   64.6810 O.2   163  CYS163     -0.2717
     72  CB       -11.1160    9.9200   65.3620 C.3   163  CYS163      0.0970
     73  SG       -10.8650    8.7330   64.0140 S.3   163  CYS163     -0.0800
     74  N         -9.0930   12.1290   64.5730 N.am  164  ALA164     -0.1965
     75  CA        -8.2500   12.7610   63.5670 C.3   164  ALA164      0.1728
     76  C         -7.9190   14.2230   63.9100 C.2   164  ALA164      0.2616
     77  O         -7.6720   15.0460   63.0200 O.2   164  ALA164     -0.2715
     78  CB        -8.9460   12.6790   62.2120 C.3   164  ALA164      0.0334
     79  N         -7.8760   14.5300   65.2000 N.am  165  ALA165     -0.1963
     80  CA        -7.5800   15.8800   65.6560 C.3   165  ALA165      0.1728
     81  C         -7.0060   15.8650   67.0760 C.2   165  ALA165      0.2616
     82  O         -7.1620   14.8920   67.8150 O.2   165  ALA165     -0.2715
     83  CB        -8.8470   16.7390   65.6020 C.3   165  ALA165      0.0334
     84  N         -6.2960   16.9300   67.4360 N.am  166  ASN166     -0.1972
     85  CA        -5.7170   17.0430   68.7680 C.3   166  ASN166      0.1688
     86  C         -6.6980   17.7490   69.6840 C.2   166  ASN166      0.2292
     87  O         -7.6580   18.3660   69.2260 O.2   166  ASN166     -0.2864
     88  CB        -4.3740   17.7670   68.7120 C.3   166  ASN166      0.1181
     89  CG        -3.2970   16.9350   68.0310 C.2   166  ASN166      0.2629
     90  OD1       -2.8600   17.2460   66.9220 O.2   166  ASN166     -0.2716
     91  ND2       -2.8680   15.8690   68.6920 N.am  166  ASN166     -0.0877
     92  N         -0.6600    8.8970   70.0600 N.3   184  GLY184     -0.1210
     93  CA        -1.1770   10.0340   69.3140 C.3   184  GLY184      0.1956
     94  C         -0.2100   10.6850   68.3480 C.2   184  GLY184      0.2611
     95  O          0.9800   10.3860   68.3440 O.2   184  GLY184     -0.2717
     96  N         -0.7390   11.5670   67.5070 N.am  185  VAL185     -0.1979
     97  CA         0.0690   12.2900   66.5320 C.3   185  VAL185      0.1595
     98  C          0.2340   13.7400   66.9730 C.2   185  VAL185      0.2287
     99  O         -0.7300   14.4040   67.3570 O.2   185  VAL185     -0.2864
    100  CB        -0.5870   12.2640   65.1300 C.3   185  VAL185      0.0276
    101  CG1        0.2390   13.0850   64.1340 C.3   185  VAL185      0.0022
    102  CG2       -0.7270   10.8210   64.6350 C.3   185  VAL185      0.0022
    103  N          0.1440   16.8640   65.9880 N.3   187  GLY187     -0.1210
    104  CA        -0.3130   17.6940   64.8910 C.3   187  GLY187      0.1956
    105  C          0.3970   19.0100   64.6320 C.2   187  GLY187      0.2612
    106  O          0.9740   19.6210   65.5350 O.2   187  GLY187     -0.2717
    107  N          0.3330   19.4370   63.3700 N.am  188  ILE188     -0.1965
    108  CA         0.9380   20.6800   62.8940 C.3   188  ILE188      0.1727
    109  C          0.1440   21.8860   63.4070 C.2   188  ILE188      0.2616
    110  O          0.7080   22.9500   63.6590 O.2   188  ILE188     -0.2715
    111  CB         1.0270   20.6960   61.3270 C.3   188  ILE188      0.0290
    112  CG1        2.4490   20.9980   60.8990 C.3   188  ILE188      0.0022
    113  CG2        0.0850   21.7250   60.7030 C.3   188  ILE188      0.0023
    114  CD1        3.4340   19.9780   61.3640 C.3   188  ILE188      0.0001
    115  N         -1.1680   21.7100   63.5380 N.am  189  MET189     -0.1977
    116  CA        -2.0300   22.7740   64.0320 C.3   189  MET189      0.1605
    117  C         -1.8760   22.8730   65.5420 C.2   189  MET189      0.2287
    118  O         -2.0130   23.9530   66.1150 O.2   189  MET189     -0.2864
    119  CB        -3.4890   22.5100   63.6750 C.3   189  MET189      0.0413
    120  CG        -4.3750   23.7180   63.9100 C.3   189  MET189      0.0598
    121  SD        -3.6350   25.1930   63.1590 S.3   189  MET189     -0.1393
    122  CE        -3.7490   24.7890   61.3890 C.3   189  MET189      0.0692
    123  N         -8.5910   20.4870   67.0950 N.3   223  CYS223     -0.1221
    124  CA        -7.8160   21.0670   65.9910 C.3   223  CYS223      0.1808
    125  C         -7.0610   20.1140   65.0630 C.2   223  CYS223      0.2601
    126  O         -6.7220   18.9960   65.4390 O.2   223  CYS223     -0.2717
    127  CB        -6.8100   22.1000   66.5380 C.3   223  CYS223      0.0970
    128  SG        -5.3310   21.4260   67.3720 S.3   223  CYS223     -0.0800
    129  N         -6.8190   20.5900   63.8410 N.am  224  ASN224     -0.1960
    130  CA        -6.0480   19.8940   62.8050 C.3   224  ASN224      0.1819
    131  C         -5.8140   20.8450   61.6160 C.2   224  ASN224      0.2621
    132  O         -6.4280   21.9030   61.5370 O.2   224  ASN224     -0.2715
    133  CB        -6.6720   18.5420   62.3830 C.3   224  ASN224      0.1195
    134  CG        -7.8640   18.6790   61.4550 C.2   224  ASN224      0.2630
    135  OD1       -7.9940   19.6360   60.7140 O.2   224  ASN224     -0.2716
    136  ND2       -8.7230   17.6790   61.4690 N.am  224  ASN224     -0.0877
    137  N         -4.9270   20.4660   60.7020 N.am  225  ALA225     -0.1963
    138  CA        -4.5930   21.2910   59.5360 C.3   225  ALA225      0.1728
    139  C         -5.7710   21.7240   58.6560 C.2   225  ALA225      0.2616
    140  O         -5.7370   22.7950   58.0520 O.2   225  ALA225     -0.2715
    141  CB        -3.5420   20.5700   58.6750 C.3   225  ALA225      0.0334
    142  N         -6.8070   20.8920   58.5970 N.am  226  LEU226     -0.1977
    143  CA        -7.9690   21.1730   57.7680 C.3   226  LEU226      0.1596
    144  C         -9.1540   21.9530   58.3650 C.2   226  LEU226      0.2287
    145  O         -9.8800   22.5940   57.5990 O.2   226  LEU226     -0.2864
    146  CB        -8.4960   19.8710   57.1310 C.3   226  LEU226      0.0297
    147  CG        -7.5980   18.9870   56.2540 C.3   226  LEU226      0.0022
    148  CD1       -6.8060   19.8220   55.2550 C.3   226  LEU226      0.0001
    149  CD2       -6.6420   18.2210   57.1200 C.3   226  LEU226      0.0001
@<TRIPOS>BOND
     1    18    16    1
     2    13    14    1
     3    13    16    1
     4    13    12    1
     5     5     2    1
     6     5     6    1
     7    14    15    2
     8    16    17    1
     9   148   147    1
    10     2     3    1
    11     2     1    1
    12     8     6   ar
    13     8    10   ar
    14     6     7   ar
    15     3     4    2
    16   147   149    1
    17   147   146    1
    18    10    11   ar
    19     7     9   ar
    20   146   143    1
    21   145   144    2
    22   143   144    1
    23   143   142    1
    24    11     9   ar
    25   140   139    2
    26   142   139   am
    27   139   138    1
    28   141   138    1
    29    24    25    1
    30    24    23    1
    31    33    32    2
    32    25    26    1
    33    21    22    2
    34    21    20    1
    35    37    36    1
    36    37    38    1
    37    19    20    1
    38    36    35    1
    39   138   137    1
    40    28    27    1
    41    20    23    1
    42    44    43    1
    43    44    45    1
    44    35    34    1
    45    43    40    1
    46    32    31    1
    47    26    27    2
    48    39    40    1
    49    27    29    1
    50   137   131   am
    51   113   111    1
    52   135   134    2
    53    34    31    1
    54   112   111    1
    55   112   114    1
    56    45    46    1
    57    40    41    1
    58    42    41    2
    59   111   108    1
    60   122   121    1
    61    31    30    1
    62   134   136   am
    63   134   133    1
    64   132   131    2
    65   131   130    1
    66    78    75    1
    67   133   130    1
    68    46    47    2
    69    48    47    1
    70   130   129    1
    71    52    53    2
    72    52    51    1
    73   108   107    1
    74   108   109    1
    75    54    51    1
    76    54    55    1
    77    77    76    2
    78    47    49    1
    79   121   120    1
    80   107   105   am
    81   109   115   am
    82   109   110    2
    83   115   116    1
    84    75    76    1
    85    75    74    1
    86   119   120    1
    87   119   116    1
    88    51    50    1
    89   129   125   am
    90    55    56    1
    91    76    79   am
    92    57    56    2
    93    73    72    1
    94   116   117    1
    95   101   100    1
    96    56    58   am
    97    74    70   am
    98   105   104    1
    99   105   106    2
   100   102   100    1
   101    71    70    2
   102   104   103    1
   103    70    69    1
   104   125   126    2
   105   125   124    1
   106   100    97    1
   107    79    80    1
   108    72    69    1
   109   117   118    2
   110    83    80    1
   111    80    81    1
   112   124   127    1
   113   124   123    1
   114    69    68    1
   115    97    98    1
   116    97    96    1
   117   127   128    1
   118    90    89    2
   119    98    99    2
   120    81    84   am
   121    81    82    2
   122    66    65   ar
   123    84    85    1
   124    96    94   am
   125    89    91   am
   126    89    88    1
   127    67    65   ar
   128    65    64    1
   129    95    94    2
   130    94    93    1
   131    88    85    1
   132    85    86    1
   133    87    86    2
   134    93    92    1
   135    64    63    1
   136    63    60    1
   137    61    60    1
   138    61    62    2
   139    60    59    1
