@<TRIPOS>MOLECULE
tmp/1etaA00.pdb
 89 80 0 0 0
SMALL
GASTEIGER

@<TRIPOS>ATOM
      1  N         18.0300   32.2290   32.4180 N.3    13  MET13      -0.1245
      2  CA        19.3360   32.9360   32.2930 C.3    13  MET13       0.1570
      3  C         19.9460   33.1780   33.6710 C.2    13  MET13       0.2261
      4  O         19.1910   33.3670   34.6390 O.2    13  MET13      -0.2867
      5  CB        19.0940   34.1810   31.4880 C.3    13  MET13       0.0387
      6  CG        18.5940   33.8890   30.0990 C.3    13  MET13       0.0595
      7  SD        17.6790   35.3710   29.5680 S.3    13  MET13      -0.1393
      8  CE        16.0620   35.0200   30.3050 C.3    13  MET13       0.0692
      9  N         23.0150   35.4220   35.7320 N.3    15  LYS15      -0.1245
     10  CA        23.9520   36.5460   35.7460 C.3    15  LYS15       0.1561
     11  C         24.6130   36.7240   37.0990 C.2    15  LYS15       0.2260
     12  O         23.9620   36.9180   38.1290 O.2    15  LYS15      -0.2867
     13  CB        23.2280   37.8400   35.3060 C.3    15  LYS15       0.0271
     14  CG        24.0140   39.1030   35.6270 C.3    15  LYS15       0.0035
     15  CD        24.2080   40.0190   34.4360 C.3    15  LYS15       0.0206
     16  CE        25.6360   40.5850   34.4230 C.3    15  LYS15       0.1093
     17  NZ        25.8710   41.1990   33.0750 N.3    15  LYS15      -0.1314
     18  N         27.6520   38.7720   39.3780 N.3    17  LEU17      -0.1245
     19  CA        28.5020   39.9360   39.5930 C.3    17  LEU17       0.1561
     20  C         29.3780   39.7820   40.8540 C.2    17  LEU17       0.2260
     21  O         28.9730   39.1280   41.8540 O.2    17  LEU17      -0.2867
     22  CB        27.5740   41.1570   39.6930 C.3    17  LEU17       0.0270
     23  CG        26.7740   41.6750   38.5340 C.3    17  LEU17       0.0019
     24  CD1       26.3550   43.1300   38.7760 C.3    17  LEU17       0.0001
     25  CD2       27.6170   41.6130   37.2320 C.3    17  LEU17       0.0001
     26  N         27.4990   36.0010   32.4450 N.3    54  GLU54      -0.1196
     27  CA        26.1980   35.4330   32.1210 C.3    54  GLU54       0.1783
     28  C         26.3030   34.0090   31.6030 C.2    54  GLU54       0.2306
     29  O         27.3040   33.5190   31.0510 O.2    54  GLU54      -0.2863
     30  CB        25.4570   36.2310   31.0280 C.2    54  GLU54       0.0071
     31  CG        25.2370   37.7140   31.2140 C.2    54  GLU54       0.0834
     32  CD        24.7090   38.5510   30.1210 C.2    54  GLU54       0.3877
     33  OE1       24.2120   38.1590   29.0720 O.co2  54  GLU54      -0.2406
     34  OE2       24.8140   39.7750   30.3470 O.co2  54  GLU54      -0.2406
     35  N         23.7330   31.5340   29.2990 N.3    56  HIS56      -0.1241
     36  CA        22.5740   31.3160   28.4380 C.3    56  HIS56       0.1621
     37  C         22.6080   29.8990   27.8770 C.2    56  HIS56       0.2264
     38  O         23.6200   29.1680   27.9680 O.2    56  HIS56      -0.2867
     39  CB        22.4650   32.2570   27.1820 C.3    56  HIS56       0.0745
     40  CG        22.6870   33.6790   27.5590 C.ar   56  HIS56       0.0817
     41  ND1       23.9240   34.2900   27.4850 N.ar   56  HIS56      -0.2268
     42  CD2       21.8360   34.6130   28.0510 C.ar   56  HIS56       0.1154
     43  CE1       23.8200   35.5300   27.9140 C.ar   56  HIS56       0.1986
     44  NE2       22.5750   35.7510   28.2670 N.ar   56  HIS56      -0.2212
     45  N         15.3150   35.1330   34.9060 N.3   106  THR106     -0.1218
     46  CA        16.6810   35.6550   35.0090 C.3   106  THR106      0.1862
     47  C         16.9950   35.5150   36.5060 C.2   106  THR106      0.2287
     48  O         16.2600   36.1010   37.3010 O.2   106  THR106     -0.2866
     49  CB        16.8660   37.1260   34.5250 C.3   106  THR106      0.1770
     50  OG1       16.4450   37.2040   33.1210 O.3   106  THR106     -0.2211
     51  CG2       18.3050   37.6490   34.7140 C.3   106  THR106      0.0375
     52  N         19.7420   36.5420   39.0880 N.3   108  ALA108     -0.1231
     53  CA        20.9730   37.3520   39.2430 C.3   108  ALA108      0.1694
     54  C         21.5350   37.0820   40.6390 C.2   108  ALA108      0.2592
     55  O         20.7190   36.9550   41.5650 O.2   108  ALA108     -0.2718
     56  CB        20.7010   38.8020   38.9730 C.3   108  ALA108      0.0304
     57  N         22.8540   36.9900   40.7890 N.am  109  ALA109     -0.1966
     58  CA        23.5360   36.8440   42.0820 C.3   109  ALA109      0.1728
     59  C         24.6430   37.8920   42.2330 C.2   109  ALA109      0.2616
     60  O         25.3390   38.0880   41.2070 O.2   109  ALA109     -0.2715
     61  CB        24.1380   35.4620   42.2280 C.3   109  ALA109      0.0334
     62  N         24.8080   38.5240   43.3680 N.am  110  LEU110     -0.1977
     63  CA        25.8930   39.4900   43.6440 C.3   110  LEU110      0.1596
     64  C         26.7840   38.8680   44.7320 C.2   110  LEU110      0.2287
     65  O         26.2510   38.5660   45.8250 O.2   110  LEU110     -0.2864
     66  CB        25.2980   40.8370   44.0260 C.3   110  LEU110      0.0297
     67  CG        26.3130   41.8900   44.4570 C.3   110  LEU110      0.0022
     68  CD1       27.1190   42.3430   43.2150 C.3   110  LEU110      0.0001
     69  CD2       25.6340   43.0730   45.1220 C.3   110  LEU110      0.0001
     70  N         23.7330   38.0900   47.4870 N.3   117  SER117     -0.1217
     71  CA        22.3270   38.4760   47.2920 C.3   117  SER117      0.1889
     72  C         21.9090   37.8480   45.9550 C.2   117  SER117      0.2288
     73  O         22.7150   37.7070   45.0280 O.2   117  SER117     -0.2866
     74  CB        22.0560   39.9410   47.3710 C.3   117  SER117      0.2089
     75  OG        22.5010   40.7260   46.3280 O.3   117  SER117     -0.2183
     76  N         18.3830   37.7440   43.2940 N.3   119  THR119     -0.1218
     77  CA        17.0740   38.2810   42.8640 C.3   119  THR119      0.1862
     78  C         16.6690   37.5450   41.5780 C.2   119  THR119      0.2287
     79  O         17.4620   36.9610   40.8630 O.2   119  THR119     -0.2866
     80  CB        17.1150   39.8410   42.7100 C.3   119  THR119      0.1770
     81  OG1       15.6780   40.2700   42.6580 O.3   119  THR119     -0.2211
     82  CG2       17.8080   40.3160   41.4630 C.3   119  THR119      0.0375
     83  N         14.0850   37.9030   38.1150 N.3   121  VAL121     -0.1245
     84  CA        13.2780   38.7420   37.2080 C.3   121  VAL121      0.1561
     85  C         12.4840   37.7270   36.3460 C.2   121  VAL121      0.2260
     86  O         13.1030   36.9560   35.6380 O.2   121  VAL121     -0.2867
     87  CB        14.0700   39.7080   36.3330 C.3   121  VAL121      0.0252
     88  CG1       13.1790   40.5510   35.4020 C.3   121  VAL121      0.0019
     89  CG2       14.9680   40.6360   37.1330 C.3   121  VAL121      0.0019
@<TRIPOS>BOND
     1    39    40    1
     2    39    36    1
     3    41    40   ar
     4    41    43   ar
     5    40    42   ar
     6    37    38    2
     7    37    36    1
     8    43    44   ar
     9    42    44   ar
    10    36    35    1
    11    33    32   ar
    12     7     6    1
    13     7     8    1
    14     6     5    1
    15    32    34   ar
    16    32    31    1
    17    30    31    2
    18    30    27    1
    19    29    28    2
    20     5     2    1
    21    28    27    1
    22    27    26    1
    23     2     1    1
    24     2     3    1
    25    17    16    1
    26    50    49    1
    27     3     4    2
    28    16    15    1
    29    15    14    1
    30    49    51    1
    31    49    46    1
    32    45    46    1
    33    46    47    1
    34    13    14    1
    35    13    10    1
    36    88    87    1
    37    86    85    2
    38     9    10    1
    39    10    11    1
    40    87    89    1
    41    87    84    1
    42    85    84    1
    43    47    48    2
    44    11    12    2
    45    84    83    1
    46    25    23    1
    47    23    24    1
    48    23    22    1
    49    56    53    1
    50    52    53    1
    51    53    54    1
    52    18    19    1
    53    19    22    1
    54    19    20    1
    55    54    57   am
    56    54    55    2
    57    57    58    1
    58    20    21    2
    59    79    78    2
    60    60    59    2
    61    82    80    1
    62    78    77    1
    63    58    61    1
    64    58    59    1
    65    59    62   am
    66    81    80    1
    67    80    77    1
    68    77    76    1
    69    68    67    1
    70    62    63    1
    71    63    66    1
    72    63    64    1
    73    66    67    1
    74    67    69    1
    75    64    65    2
    76    73    72    2
    77    72    71    1
    78    75    74    1
    79    71    74    1
    80    71    70    1
