@<TRIPOS>MOLECULE
tmp/1ethC00.pdb
 144 139 0 0 0
SMALL
GASTEIGER

@<TRIPOS>ATOM
      1  N         99.2230   43.3480  140.9550 N.3     8  LEU8       -0.1231
      2  CA        97.8120   43.3170  141.3110 C.3     8  LEU8        0.1693
      3  C         96.8660   44.0640  140.3640 C.2     8  LEU8        0.2593
      4  O         95.6770   44.1920  140.6610 O.2     8  LEU8       -0.2718
      5  CB        97.6460   43.8360  142.7470 C.3     8  LEU8        0.0284
      6  CG        98.4520   43.0260  143.7780 C.3     8  LEU8        0.0019
      7  CD1       98.2540   43.5700  145.1950 C.3     8  LEU8        0.0001
      8  CD2       98.0520   41.5530  143.6510 C.3     8  LEU8        0.0001
      9  N         97.3850   44.5440  139.2340 N.am    9  GLY9       -0.1942
     10  CA        96.5570   45.2390  138.2630 C.3     9  GLY9        0.2014
     11  C         96.0560   46.5850  138.7510 C.2     9  GLY9        0.2639
     12  O         96.6750   47.2040  139.6220 O.2     9  GLY9       -0.2714
     13  N         94.9250   47.0310  138.2040 N.am   10  CYS10      -0.1953
     14  CA        94.4590   48.4120  138.3810 C.3    10  CYS10       0.1843
     15  C         93.2890   48.5060  139.3460 C.2    10  CYS10       0.2625
     16  O         92.6770   47.4960  139.6710 O.2    10  CYS10      -0.2714
     17  CB        94.0460   49.0200  137.0370 C.3    10  CYS10       0.0997
     18  SG        95.4090   49.3300  135.8640 S.3    10  CYS10      -0.0797
     19  N         93.0040   49.7090  139.8320 N.am   11  PHE11      -0.1960
     20  CA        92.0790   49.8670  140.9270 C.3    11  PHE11       0.1771
     21  C         91.3020   51.1510  140.7930 C.2    11  PHE11       0.2620
     22  O         91.7390   52.2120  141.2470 O.2    11  PHE11      -0.2715
     23  CB        92.8180   49.7970  142.2730 C.3    11  PHE11       0.0574
     24  CG        93.2510   48.4010  142.6470 C.ar   11  PHE11      -0.0200
     25  CD1       94.3500   47.8120  142.0230 C.ar   11  PHE11      -0.0042
     26  CD2       92.4320   47.5940  143.4160 C.ar   11  PHE11      -0.0042
     27  CE1       94.5980   46.4380  142.1240 C.ar   11  PHE11      -0.0003
     28  CE2       92.6850   46.2210  143.5280 C.ar   11  PHE11      -0.0003
     29  CZ        93.7610   45.6430  142.8710 C.ar   11  PHE11      -0.0000
     30  N         90.1100   51.0370  140.2130 N.am   12  SER12      -0.1950
     31  CA        89.2730   52.2010  139.8890 C.3    12  SER12       0.1924
     32  C         88.5430   52.6820  141.1250 C.2    12  SER12       0.2314
     33  O         87.9940   51.8670  141.8550 O.2    12  SER12      -0.2863
     34  CB        88.2450   51.7910  138.8380 C.3    12  SER12       0.2116
     35  OG        88.4260   50.4180  138.5170 O.3    12  SER12      -0.2180
     36  N         82.3380   50.8030  143.2340 N.3    17  TRP17      -0.1241
     37  CA        83.4030   50.7890  144.2380 C.3    17  TRP17       0.1605
     38  C         83.3690   52.0190  145.1150 C.2    17  TRP17       0.2264
     39  O         83.7860   51.9660  146.2700 O.2    17  TRP17      -0.2867
     40  CB        84.7640   50.7020  143.5970 C.3    17  TRP17       0.0550
     41  CG        84.9100   49.5400  142.7720 C.ar   17  TRP17       0.0003
     42  CD1       84.9570   49.5120  141.4160 C.ar   17  TRP17       0.0946
     43  CD2       85.0650   48.1860  143.2140 C.ar   17  TRP17       0.0152
     44  NE1       85.1530   48.2200  140.9770 N.ar   17  TRP17      -0.2442
     45  CE2       85.2210   47.3850  142.0630 C.ar   17  TRP17       0.0810
     46  CE3       85.1030   47.5730  144.4760 C.ar   17  TRP17       0.0012
     47  CZ2       85.4180   45.9970  142.1290 C.ar   17  TRP17       0.0191
     48  CZ3       85.3020   46.1890  144.5410 C.ar   17  TRP17       0.0001
     49  CH2       85.4580   45.4210  143.3720 C.ar   17  TRP17       0.0015
     50  N         90.4810   45.2630  148.8050 N.3   123  ARG123     -0.1245
     51  CA        90.5540   44.8640  147.3890 C.3   123  ARG123      0.1563
     52  C         91.9730   44.4140  147.0880 C.2   123  ARG123      0.2260
     53  O         92.2110   43.4580  146.3310 O.2   123  ARG123     -0.2867
     54  CB        90.2040   46.0250  146.4740 C.3   123  ARG123      0.0307
     55  CG        88.8260   46.5770  146.6960 C.3   123  ARG123      0.0489
     56  CD        88.7420   48.0340  146.2590 C.3   123  ARG123      0.2205
     57  NE        88.7770   48.1480  144.8090 N.pl3 123  ARG123     -0.0865
     58  CZ        88.5690   49.2740  144.1480 C.cat 123  ARG123      0.5346
     59  NH1       88.3250   50.4110  144.7940 N.pl3 123  ARG123      0.1354
     60  NH2       88.5600   49.2410  142.8270 N.pl3 123  ARG123      0.1354
     61  N         96.6420   32.2120  145.1130 N.3   133  VAL133     -0.1231
     62  CA        95.8960   31.0780  144.5820 C.3   133  VAL133      0.1692
     63  C         96.3230   30.8700  143.1380 C.2   133  VAL133      0.2591
     64  O         96.7120   29.7680  142.7670 O.2   133  VAL133     -0.2718
     65  CB        94.3690   31.3370  144.6420 C.3   133  VAL133      0.0266
     66  CG1       93.5970   30.1150  144.1870 C.3   133  VAL133      0.0020
     67  CG2       93.9650   31.7260  146.0610 C.3   133  VAL133      0.0020
     68  N         96.3850   31.9690  142.3790 N.am  134  GLU134     -0.1979
     69  CA        96.8390   31.9570  140.9830 C.3   134  GLU134      0.1602
     70  C         98.1520   31.1960  140.7900 C.2   134  GLU134      0.2287
     71  O         98.1840   30.1720  140.1010 O.2   134  GLU134     -0.2864
     72  CB        97.0200   33.3860  140.4690 C.3   134  GLU134      0.0415
     73  CG        95.7650   34.2440  140.4980 C.3   134  GLU134      0.1163
     74  CD        94.9770   34.2070  139.1890 C.2   134  GLU134      0.3649
     75  OE1       95.0040   33.1660  138.4860 O.co2 134  GLU134     -0.2457
     76  OE2       94.3000   35.2170  138.8830 O.co2 134  GLU134     -0.2457
     77  N         97.9600   27.5790  141.5510 N.3   137  LYS137     -0.1245
     78  CA        97.2470   26.8960  140.4810 C.3   137  LYS137      0.1561
     79  C         98.1370   26.6770  139.2670 C.2   137  LYS137      0.2260
     80  O         98.3740   25.5320  138.8850 O.2   137  LYS137     -0.2867
     81  CB        96.0080   27.6990  140.0810 C.3   137  LYS137      0.0271
     82  CG        95.1870   27.0730  138.9800 C.3   137  LYS137      0.0035
     83  CD        94.0250   27.9810  138.6180 C.3   137  LYS137      0.0206
     84  CE        93.1570   27.3930  137.5040 C.3   137  LYS137      0.1093
     85  NZ        92.5390   26.0710  137.8630 N.3   137  LYS137     -0.1314
     86  N         92.6690   25.5970  142.7320 N.3   144  PRO144     -0.2116
     87  CA        91.9120   26.5030  143.6060 C.3   144  PRO144      0.1372
     88  C         90.7600   25.7700  144.2970 C.2   144  PRO144      0.2244
     89  O         90.1570   26.2910  145.2460 O.2   144  PRO144     -0.2868
     90  CB        91.4220   27.5790  142.6480 C.3   144  PRO144      0.0268
     91  CG        91.2330   26.8390  141.3790 C.3   144  PRO144      0.0207
     92  CD        92.3820   25.8610  141.3140 C.3   144  PRO144      0.0892
     93  N         86.1620   36.3740  143.8750 N.3   164  ARG164     -0.1231
     94  CA        85.7880   37.0020  142.6230 C.3   164  ARG164      0.1694
     95  C         86.8870   36.8520  141.5700 C.2   164  ARG164      0.2592
     96  O         86.6950   36.1420  140.5780 O.2   164  ARG164     -0.2718
     97  CB        85.4930   38.4710  142.8630 C.3   164  ARG164      0.0321
     98  CG        84.5690   39.0140  141.8590 C.3   164  ARG164      0.0489
     99  CD        85.3160   39.8970  140.9320 C.3   164  ARG164      0.2205
    100  NE        85.4590   41.2310  141.4850 N.pl3 164  ARG164     -0.0865
    101  CZ        86.1610   42.1820  140.8980 C.cat 164  ARG164      0.5346
    102  NH1       86.8210   41.9190  139.7770 N.pl3 164  ARG164      0.1354
    103  NH2       86.2390   43.3780  141.4510 N.pl3 164  ARG164      0.1354
    104  N         88.0790   37.3700  141.8810 N.am  165  ARG165     -0.1966
    105  CA        89.1930   37.3910  140.9340 C.3   165  ARG165      0.1729
    106  C         89.5250   35.9850  140.4840 C.2   165  ARG165      0.2617
    107  O         90.1970   35.7990  139.4690 O.2   165  ARG165     -0.2715
    108  CB        90.4720   38.0210  141.5270 C.3   165  ARG165      0.0348
    109  CG        90.3080   38.8660  142.7890 C.3   165  ARG165      0.0492
    110  CD        90.1730   40.3340  142.5030 C.3   165  ARG165      0.2205
    111  NE        91.3680   40.8810  141.8630 N.pl3 165  ARG165     -0.0865
    112  CZ        91.7970   42.1330  142.0030 C.cat 165  ARG165      0.5346
    113  NH1       91.2490   42.9490  142.8900 N.pl3 165  ARG165      0.1354
    114  NH2       92.8610   42.5300  141.3340 N.pl3 165  ARG165      0.1354
    115  N         89.1070   34.9930  141.2570 N.am  166  THR166     -0.1937
    116  CA        89.4470   33.6190  140.9150 C.3   166  THR166      0.2028
    117  C         88.2980   32.9900  140.1440 C.2   166  THR166      0.2642
    118  O         88.2750   31.7800  139.8810 O.2   166  THR166     -0.2714
    119  CB        89.7930   32.7710  142.1790 C.3   166  THR166      0.1808
    120  OG1       88.7760   32.9460  143.1730 O.3   166  THR166     -0.2208
    121  CG2       91.1240   33.1890  142.7730 C.3   166  THR166      0.0379
    122  N         87.3860   33.8290  139.6830 N.am  167  ASN167     -0.1971
    123  CA        86.3160   33.3440  138.8320 C.3   167  ASN167      0.1688
    124  C         85.4800   32.3410  139.6310 C.2   167  ASN167      0.2292
    125  O         84.9080   31.3950  139.0850 O.2   167  ASN167     -0.2864
    126  CB        86.9160   32.6800  137.5690 C.3   167  ASN167      0.1181
    127  CG        87.9890   33.5450  136.8970 C.2   167  ASN167      0.2629
    128  OD1       87.7740   34.7300  136.6320 O.2   167  ASN167     -0.2716
    129  ND2       89.1570   32.9620  136.6580 N.am  167  ASN167     -0.0877
    130  N         86.2930   29.8530  141.8160 N.3   169  THR169     -0.1218
    131  CA        86.6900   28.4710  141.6990 C.3   169  THR169      0.1862
    132  C         87.2530   27.8940  142.9930 C.2   169  THR169      0.2287
    133  O         87.3730   26.6680  143.1240 O.2   169  THR169     -0.2866
    134  CB        87.6970   28.3030  140.5710 C.3   169  THR169      0.1770
    135  OG1       88.7400   29.2740  140.7140 O.3   169  THR169     -0.2211
    136  CG2       87.0030   28.4910  139.2300 C.3   169  THR169      0.0375
    137  N         79.6100   42.6170  143.2680 N.3   189  LEU189     -0.1245
    138  CA        80.9760   43.1120  143.0040 C.3   189  LEU189      0.1561
    139  C         81.4050   44.1660  144.0080 C.2   189  LEU189      0.2260
    140  O         81.6640   45.2950  143.6360 O.2   189  LEU189     -0.2867
    141  CB        81.0730   43.7180  141.5790 C.3   189  LEU189      0.0270
    142  CG        82.3820   44.3920  141.1230 C.3   189  LEU189      0.0019
    143  CD1       83.0930   43.5240  140.0870 C.3   189  LEU189      0.0001
    144  CD2       82.0800   45.7800  140.5810 C.3   189  LEU189      0.0001
@<TRIPOS>BOND
     1    18    17    1
     2   128   127    2
     3   129   127   am
     4   127   126    1
     5    17    14    1
     6    84    85    1
     7    84    83    1
     8   126   123    1
     9    13    14    1
    10    13    11   am
    11    10    11    1
    12    10     9    1
    13    14    15    1
    14    75    74   ar
    15    35    34    1
    16    83    82    1
    17    11    12    2
    18   123   124    1
    19   123   122    1
    20    34    31    1
    21    76    74   ar
    22    80    79    2
    23    82    81    1
    24   125   124    2
    25    74    73    1
    26   136   134    1
    27     9     3   am
    28    79    78    1
    29    15    16    2
    30    15    19   am
    31   107   106    2
    32   122   117   am
    33   102   101    1
    34    19    20    1
    35   118   117    2
    36    31    30    1
    37    31    32    1
    38    81    78    1
    39   143   142    1
    40    71    70    2
    41   117   116    1
    42    30    21   am
    43     3     4    2
    44     3     2    1
    45    72    73    1
    46    72    69    1
    47    78    77    1
    48   106   105    1
    49   106   115   am
    50   134   135    1
    51   134   131    1
    52    96    95    2
    53   144   142    1
    54    70    69    1
    55    21    20    1
    56    21    22    2
    57   101   103    1
    58   101   100    2
    59   116   115    1
    60   116   119    1
    61    20    23    1
    62    99   100    1
    63    99    98    1
    64   105   108    1
    65   105   104    1
    66     1     2    1
    67    44    42   ar
    68    44    45   ar
    69    69    68    1
    70   142   141    1
    71    32    33    2
    72     2     5    1
    73    92    91    1
    74    92    86    1
    75   114   112    1
    76    91    90    1
    77    42    41   ar
    78   108   109    1
    79    95   104   am
    80    95    94    1
    81   141   138    1
    82   131   130    1
    83   131   132    1
    84    98    97    1
    85   111   112    2
    86   111   110    1
    87   112   113    1
    88    25    27   ar
    89    25    24   ar
    90    45    47   ar
    91    45    43   ar
    92    27    29   ar
    93    47    49   ar
    94   119   121    1
    95   119   120    1
    96    23    24    1
    97    68    63   am
    98   110   109    1
    99    94    97    1
   100    94    93    1
   101    24    26   ar
   102    90    87    1
   103    86    87    1
   104     5     6    1
   105    64    63    2
   106    41    43   ar
   107    41    40    1
   108    60    58    1
   109    29    28   ar
   110   132   133    2
   111   138   137    1
   112   138   139    1
   113    63    62    1
   114    43    46   ar
   115    36    37    1
   116    49    48   ar
   117    26    28   ar
   118    40    37    1
   119    87    88    1
   120   140   139    2
   121     8     6    1
   122     6     7    1
   123    58    59    1
   124    58    57    2
   125    66    65    1
   126    37    38    1
   127    88    89    2
   128    46    48   ar
   129    62    65    1
   130    62    61    1
   131    65    67    1
   132    57    56    1
   133    38    39    2
   134    56    55    1
   135    53    52    2
   136    54    55    1
   137    54    51    1
   138    52    51    1
   139    51    50    1
