@<TRIPOS>MOLECULE
tmp/1ethC02.pdb
 151 150 0 0 0
SMALL
GASTEIGER

@<TRIPOS>ATOM
      1  N         89.4800   44.7340  160.0330 N.3    78  PHE78      -0.1227
      2  CA        89.7620   46.0310  160.6440 C.3    78  PHE78       0.1736
      3  C         90.4770   45.9780  161.9910 C.2    78  PHE78       0.2595
      4  O         90.0020   45.3310  162.9180 O.2    78  PHE78      -0.2718
      5  CB        88.4530   46.7880  160.8200 C.3    78  PHE78       0.0547
      6  CG        88.6190   48.2240  161.1890 C.ar   78  PHE78      -0.0202
      7  CD1       89.5300   49.0300  160.5030 C.ar   78  PHE78      -0.0042
      8  CD2       87.8040   48.7950  162.1780 C.ar   78  PHE78      -0.0042
      9  CE1       89.6220   50.3790  160.7870 C.ar   78  PHE78      -0.0003
     10  CE2       87.8800   50.1490  162.4750 C.ar   78  PHE78      -0.0003
     11  CZ        88.7830   50.9520  161.7820 C.ar   78  PHE78      -0.0000
     12  N         91.5570   46.7420  162.1340 N.am   79  ILE79      -0.1966
     13  CA        92.0850   47.0390  163.4600 C.3    79  ILE79       0.1727
     14  C         92.7340   45.7770  164.0170 C.2    79  ILE79       0.2616
     15  O         93.0780   45.7060  165.1950 O.2    79  ILE79      -0.2715
     16  CB        90.9200   47.6020  164.3800 C.3    79  ILE79       0.0290
     17  CG1       90.6290   49.0390  163.9950 C.3    79  ILE79       0.0022
     18  CG2       91.2840   47.6850  165.8240 C.3    79  ILE79       0.0023
     19  CD1       91.8090   49.7820  163.3990 C.3    79  ILE79       0.0001
     20  N         93.0260   44.8260  163.1440 N.am   80  ASP80      -0.1971
     21  CA        93.5420   43.5440  163.6090 C.3    80  ASP80       0.1709
     22  C         94.6880   43.1680  162.7230 C.2    80  ASP80       0.2293
     23  O         94.7990   43.6950  161.6280 O.2    80  ASP80      -0.2864
     24  CB        92.4640   42.4560  163.5220 C.3    80  ASP80       0.1436
     25  CG        91.9820   41.9680  164.8930 C.2    80  ASP80       0.3671
     26  OD1       91.9690   42.7660  165.8680 O.co2  80  ASP80      -0.2456
     27  OD2       91.5430   40.7910  164.9650 O.co2  80  ASP80      -0.2456
     28  N         88.2780   53.4500  158.8330 N.3   115  TYR115     -0.1241
     29  CA        87.3700   52.3690  158.4660 C.3   115  TYR115      0.1605
     30  C         87.0970   52.3300  156.9510 C.2   115  TYR115      0.2264
     31  O         87.3960   51.3280  156.2910 O.2   115  TYR115     -0.2867
     32  CB        86.0380   52.4600  159.2370 C.3   115  TYR115      0.0534
     33  CG        85.1470   51.2500  158.9930 C.ar  115  TYR115     -0.0201
     34  CD1       85.6320   49.9530  159.2340 C.ar  115  TYR115     -0.0009
     35  CD2       83.9900   51.3710  158.2330 C.ar  115  TYR115     -0.0009
     36  CE1       85.0260   48.8510  158.6770 C.ar  115  TYR115      0.0417
     37  CE2       83.3690   50.2560  157.6870 C.ar  115  TYR115      0.0417
     38  CZ        83.8950   49.0200  157.8920 C.ar  115  TYR115      0.1957
     39  OH        83.3470   47.9650  157.2350 O.3   115  TYR115     -0.2866
     40  N         87.0490   37.3910  158.5710 N.3   152  HIS152     -0.1226
     41  CA        86.1870   37.9260  159.6100 C.3   152  HIS152      0.1752
     42  C         86.0020   39.4250  159.3800 C.2   152  HIS152      0.2596
     43  O         86.9390   40.0990  158.9750 O.2   152  HIS152     -0.2718
     44  CB        86.8040   37.6460  160.9960 C.3   152  HIS152      0.0759
     45  CG        86.0860   38.3280  162.1180 C.ar  152  HIS152      0.0818
     46  ND1       86.6700   39.3140  162.8780 N.ar  152  HIS152     -0.2268
     47  CD2       84.7950   38.2630  162.5220 C.ar  152  HIS152      0.1154
     48  CE1       85.7680   39.8460  163.6850 C.ar  152  HIS152      0.1986
     49  NE2       84.6190   39.2240  163.4890 N.ar  152  HIS152     -0.2212
     50  N         84.8250   39.9610  159.6520 N.am  153  SER153     -0.1952
     51  CA        84.5420   41.3600  159.3330 C.3   153  SER153      0.1924
     52  C         84.9500   41.7010  157.8880 C.2   153  SER153      0.2314
     53  O         84.6930   40.9170  156.9680 O.2   153  SER153     -0.2863
     54  CB        85.2670   42.2650  160.3170 C.3   153  SER153      0.2116
     55  OG        84.3680   43.1760  160.9130 O.3   153  SER153     -0.2180
     56  N         81.4130   42.4870  157.5290 N.3   179  ALA179     -0.1245
     57  CA        81.2320   43.8520  158.0210 C.3   179  ALA179      0.1562
     58  C         80.0560   44.4480  157.2690 C.2   179  ALA179      0.2260
     59  O         79.8790   44.1660  156.0810 O.2   179  ALA179     -0.2867
     60  CB        82.4950   44.6860  157.8040 C.3   179  ALA179      0.0290
     61  N         78.8980   47.9660  157.3550 N.3   181  PRO181     -0.2116
     62  CA        78.9410   49.3030  156.7600 C.3   181  PRO181      0.1372
     63  C         79.7520   49.3140  155.4580 C.2   181  PRO181      0.2244
     64  O         80.7330   48.5770  155.3150 O.2   181  PRO181     -0.2868
     65  CB        79.5810   50.1560  157.8530 C.3   181  PRO181      0.0268
     66  CG        79.2530   49.4430  159.1050 C.3   181  PRO181      0.0207
     67  CD        79.3970   47.9910  158.7380 C.3   181  PRO181      0.0892
     68  N         78.2470   45.7930  164.2470 N.3   216  PHE216     -0.1241
     69  CA        79.1080   45.8230  163.0800 C.3   216  PHE216      0.1605
     70  C         78.7950   44.6940  162.1090 C.2   216  PHE216      0.2264
     71  O         79.4990   44.5270  161.1030 O.2   216  PHE216     -0.2867
     72  CB        80.5810   45.7470  163.4990 C.3   216  PHE216      0.0534
     73  CG        80.9340   46.6540  164.6360 C.ar  216  PHE216     -0.0203
     74  CD1       80.6340   48.0080  164.5680 C.ar  216  PHE216     -0.0042
     75  CD2       81.4740   46.1370  165.8180 C.ar  216  PHE216     -0.0042
     76  CE1       80.8540   48.8450  165.6610 C.ar  216  PHE216     -0.0003
     77  CE2       81.6980   46.9620  166.9340 C.ar  216  PHE216     -0.0003
     78  CZ        81.3840   48.3190  166.8580 C.ar  216  PHE216     -0.0000
     79  N         93.5850   41.0050  177.3510 N.3   253  TRP253     -0.1241
     80  CA        93.4660   41.4020  175.9500 C.3   253  TRP253      0.1605
     81  C         92.1120   40.9460  175.3980 C.2   253  TRP253      0.2264
     82  O         91.3290   41.7530  174.8830 O.2   253  TRP253     -0.2867
     83  CB        94.5830   40.7670  175.1240 C.3   253  TRP253      0.0550
     84  CG        94.6620   41.2340  173.6640 C.ar  253  TRP253      0.0003
     85  CD1       95.1090   40.5010  172.5760 C.ar  253  TRP253      0.0946
     86  CD2       94.2450   42.5050  173.1350 C.ar  253  TRP253      0.0152
     87  NE1       94.9640   41.2360  171.4160 N.ar  253  TRP253     -0.2442
     88  CE2       94.4270   42.4540  171.7260 C.ar  253  TRP253      0.0810
     89  CE3       93.7160   43.6720  173.7100 C.ar  253  TRP253      0.0012
     90  CZ2       94.0800   43.5110  170.8970 C.ar  253  TRP253      0.0191
     91  CZ3       93.3760   44.7240  172.8840 C.ar  253  TRP253      0.0001
     92  CH2       93.5540   44.6350  171.4900 C.ar  253  TRP253      0.0015
     93  N         89.0980   42.7180  176.4820 N.3   256  THR256     -0.1203
     94  CA        88.9500   44.0970  176.0140 C.3   256  THR256      0.1994
     95  C         88.3990   44.0350  174.6080 C.2   256  THR256      0.2617
     96  O         87.3460   44.6100  174.3350 O.2   256  THR256     -0.2717
     97  CB        90.2840   44.9060  176.0330 C.3   256  THR256      0.1784
     98  OG1       91.3950   44.0050  175.9840 O.3   256  THR256     -0.2211
     99  CG2       90.3820   45.7540  177.3040 C.3   256  THR256      0.0376
    100  N         88.9760   43.1560  173.7960 N.am  257  ARG257     -0.1979
    101  CA        88.4280   42.8850  172.4760 C.3   257  ARG257      0.1597
    102  C         86.9430   42.5090  172.5830 C.2   257  ARG257      0.2287
    103  O         86.0920   43.1370  171.9420 O.2   257  ARG257     -0.2864
    104  CB        89.2080   41.7700  171.7990 C.3   257  ARG257      0.0334
    105  CG        90.6820   42.0120  171.7840 C.3   257  ARG257      0.0492
    106  CD        91.4330   40.7870  171.3470 C.3   257  ARG257      0.2205
    107  NE        91.0110   40.3210  170.0200 N.pl3 257  ARG257     -0.0865
    108  CZ        91.2130   40.9810  168.8850 C.cat 257  ARG257      0.5346
    109  NH1       91.8230   42.1540  168.9070 N.pl3 257  ARG257      0.1354
    110  NH2       90.8340   40.4560  167.7270 N.pl3 257  ARG257      0.1354
    111  N         85.2280   43.3230  175.1230 N.3   259  PHE259     -0.1227
    112  CA        84.6320   44.5540  175.6230 C.3   259  PHE259      0.1736
    113  C         84.2740   45.5030  174.4780 C.2   259  PHE259      0.2595
    114  O         83.4110   46.3680  174.6300 O.2   259  PHE259     -0.2718
    115  CB        85.5720   45.2640  176.6000 C.3   259  PHE259      0.0547
    116  CG        84.9980   46.5230  177.1560 C.ar  259  PHE259     -0.0202
    117  CD1       83.9400   46.4750  178.0610 C.ar  259  PHE259     -0.0042
    118  CD2       85.4380   47.7660  176.7000 C.ar  259  PHE259     -0.0042
    119  CE1       83.3160   47.6480  178.5070 C.ar  259  PHE259     -0.0003
    120  CE2       84.8280   48.9440  177.1370 C.ar  259  PHE259     -0.0003
    121  CZ        83.7600   48.8840  178.0460 C.ar  259  PHE259     -0.0000
    122  N         84.9840   45.3880  173.3570 N.am  260  VAL260     -0.1966
    123  CA        84.8140   46.3410  172.2550 C.3   260  VAL260      0.1727
    124  C         83.8180   45.8130  171.2360 C.2   260  VAL260      0.2616
    125  O         82.8050   46.4500  170.9630 O.2   260  VAL260     -0.2715
    126  CB        86.1620   46.6380  171.5270 C.3   260  VAL260      0.0290
    127  CG1       85.9240   47.5690  170.3280 C.3   260  VAL260      0.0023
    128  CG2       87.1410   47.2950  172.4810 C.3   260  VAL260      0.0023
    129  N         84.0910   44.6250  170.7160 N.am  261  ALA261     -0.1977
    130  CA        83.2040   43.9910  169.7690 C.3   261  ALA261      0.1597
    131  C         82.9030   42.5210  170.1270 C.2   261  ALA261      0.2287
    132  O         83.1190   41.6140  169.3020 O.2   261  ALA261     -0.2864
    133  CB        83.8050   44.0850  168.4040 C.3   261  ALA261      0.0319
    134  N         80.3920   40.5640  167.7770 N.3   264  HIS264     -0.1226
    135  CA        81.0720   40.5720  166.4880 C.3   264  HIS264      0.1752
    136  C         82.1610   39.5220  166.4680 C.2   264  HIS264      0.2595
    137  O         82.3380   38.8340  165.4600 O.2   264  HIS264     -0.2718
    138  CB        81.6800   41.9540  166.2380 C.3   264  HIS264      0.0759
    139  CG        82.2310   42.1400  164.8550 C.ar  264  HIS264      0.0818
    140  ND1       81.6720   43.0130  163.9440 N.ar  264  HIS264     -0.2268
    141  CD2       83.2820   41.5660  164.2250 C.ar  264  HIS264      0.1154
    142  CE1       82.3530   42.9650  162.8120 C.ar  264  HIS264      0.1986
    143  NE2       83.3330   42.0900  162.9530 N.ar  264  HIS264     -0.2212
    144  N         82.9040   39.4200  167.5720 N.am  265  LEU265     -0.1980
    145  CA        84.0800   38.5540  167.6290 C.3   265  LEU265      0.1596
    146  C         83.7430   37.0900  167.8370 C.2   265  LEU265      0.2287
    147  O         84.5070   36.1970  167.3920 O.2   265  LEU265     -0.2864
    148  CB        85.0410   39.0210  168.7200 C.3   265  LEU265      0.0297
    149  CG        85.6750   40.3770  168.4570 C.3   265  LEU265      0.0022
    150  CD1       86.5020   40.7560  169.6520 C.3   265  LEU265      0.0001
    151  CD2       86.5060   40.3350  167.1990 C.3   265  LEU265      0.0001
@<TRIPOS>BOND
     1    64    63    2
     2    63    62    1
     3    59    58    2
     4    31    30    2
     5    62    61    1
     6    62    65    1
     7    30    29    1
     8    53    52    2
     9    39    38    1
    10    58    57    1
    11    61    67    1
    12    56    57    1
    13    37    38   ar
    14    37    35   ar
    15    60    57    1
    16    65    66    1
    17    52    51    1
    18    38    36   ar
    19    35    33   ar
    20    29    28    1
    21    29    32    1
    22    40    41    1
    23    36    34   ar
    24    67    66    1
    25    43    42    2
    26    33    34   ar
    27    33    32    1
    28    51    50    1
    29    51    54    1
    30    42    41    1
    31    42    50   am
    32    41    44    1
    33     1     2    1
    34    54    55    1
    35     7     9   ar
    36     7     6   ar
    37     2     5    1
    38     2     3    1
    39     9    11   ar
    40     5     6    1
    41    44    45    1
    42    71    70    2
    43     6     8   ar
    44    23    22    2
    45    11    10   ar
    46     3    12   am
    47     3     4    2
    48    70    69    1
    49    45    47   ar
    50    45    46   ar
    51    12    13    1
    52     8    10   ar
    53    47    49   ar
    54    22    21    1
    55   142   143   ar
    56   142   140   ar
    57    46    48   ar
    58   143   141   ar
    59    69    72    1
    60    69    68    1
    61    20    21    1
    62    20    14   am
    63    19    17    1
    64    13    14    1
    65    13    16    1
    66    49    48   ar
    67    72    73    1
    68    24    21    1
    69    24    25    1
    70   140   139   ar
    71    17    16    1
    72    14    15    2
    73   141   139   ar
    74    16    18    1
    75    74    73   ar
    76    74    76   ar
    77    73    75   ar
    78   139   138    1
    79    25    27   ar
    80    25    26   ar
    81   137   136    2
    82    76    78   ar
    83    75    77   ar
    84   138   135    1
    85   136   135    1
    86   136   144   am
    87   135   134    1
    88    78    77   ar
    89   151   149    1
    90   147   146    2
    91   144   145    1
    92   145   146    1
    93   145   148    1
    94   110   108    1
    95   133   130    1
    96   149   148    1
    97   149   150    1
    98   108   109    1
    99   108   107    2
   100   132   131    2
   101   130   131    1
   102   130   129    1
   103   107   106    1
   104   127   126    1
   105   129   124   am
   106    90    92   ar
   107    90    88   ar
   108   125   124    2
   109   124   123    1
   110   106   105    1
   111    87    88   ar
   112    87    85   ar
   113    92    91   ar
   114   126   123    1
   115   126   128    1
   116    88    86   ar
   117   105   104    1
   118   104   101    1
   119   103   102    2
   120   123   122    1
   121   101   102    1
   122   101   100    1
   123    85    84   ar
   124    91    89   ar
   125    86    84   ar
   126    86    89   ar
   127   122   113   am
   128    84    83    1
   129   100    95   am
   130    96    95    2
   131   113   114    2
   132   113   112    1
   133    95    94    1
   134    82    81    2
   135   111   112    1
   136    83    80    1
   137    81    80    1
   138   112   115    1
   139    80    79    1
   140    98    97    1
   141    94    97    1
   142    94    93    1
   143    97    99    1
   144   115   116    1
   145   118   120   ar
   146   118   116   ar
   147   120   121   ar
   148   116   117   ar
   149   121   119   ar
   150   117   119   ar
