@<TRIPOS>MOLECULE
tmp/1ethC01.pdb
 79 72 0 0 0
SMALL
GASTEIGER

@<TRIPOS>ATOM
      1  N         73.0780   42.1070  158.6390 N.3   219  SER219     -0.1217
      2  CA        71.7170   41.5600  158.5410 C.3   219  SER219      0.1889
      3  C         71.5940   40.7620  157.2720 C.2   219  SER219      0.2288
      4  O         71.3700   39.5620  157.3140 O.2   219  SER219     -0.2866
      5  CB        70.6380   42.6580  158.5200 C.3   219  SER219      0.2089
      6  OG        71.1820   43.9640  158.5590 O.3   219  SER219     -0.2183
      7  N         71.5680   38.5860  154.0040 N.3   221  THR221     -0.1218
      8  CA        72.1140   37.2690  153.7630 C.3   221  THR221      0.1862
      9  C         73.3820   37.4840  152.9520 C.2   221  THR221      0.2287
     10  O         73.7420   38.6140  152.6550 O.2   221  THR221     -0.2866
     11  CB        71.1670   36.3870  152.9520 C.3   221  THR221      0.1770
     12  OG1       69.8400   36.9210  152.9860 O.3   221  THR221     -0.2211
     13  CG2       71.1540   35.0040  153.5470 C.3   221  THR221      0.0375
     14  N         72.3720   31.9690  161.9220 N.3   228  PHE228     -0.1241
     15  CA        72.2800   33.0410  162.9080 C.3   228  PHE228      0.1605
     16  C         72.2700   32.5290  164.3470 C.2   228  PHE228      0.2264
     17  O         71.2610   32.6570  165.0450 O.2   228  PHE228     -0.2867
     18  CB        71.0180   33.8490  162.6940 C.3   228  PHE228      0.0534
     19  CG        70.9980   34.5990  161.4400 C.ar  228  PHE228     -0.0203
     20  CD1       71.1120   33.9450  160.2390 C.ar  228  PHE228     -0.0042
     21  CD2       70.7790   35.9640  161.4530 C.ar  228  PHE228     -0.0042
     22  CE1       70.9980   34.6370  159.0510 C.ar  228  PHE228     -0.0003
     23  CE2       70.6680   36.6760  160.2700 C.ar  228  PHE228     -0.0003
     24  CZ        70.7740   36.0140  159.0670 C.ar  228  PHE228     -0.0000
     25  N         61.0550   30.0510  160.3570 N.3   287  ASP287     -0.1225
     26  CA        60.5400   31.2280  159.7140 C.3   287  ASP287      0.1805
     27  C         61.0230   32.4570  160.4470 C.2   287  ASP287      0.2598
     28  O         60.7590   33.5830  160.0320 O.2   287  ASP287     -0.2718
     29  CB        59.0100   31.1420  159.6830 C.3   287  ASP287      0.1424
     30  CG        58.5170   29.9500  158.8460 C.2   287  ASP287      0.3668
     31  OD1       58.5380   28.8020  159.3620 O.co2 287  ASP287     -0.2456
     32  OD2       58.2270   30.1380  157.6360 O.co2 287  ASP287     -0.2456
     33  N         61.8220   32.2340  161.4810 N.am  288  SER288     -0.1952
     34  CA        62.2200   33.2950  162.3880 C.3   288  SER288      0.1924
     35  C         63.1930   32.7520  163.4180 C.2   288  SER288      0.2314
     36  O         63.6680   31.6170  163.3030 O.2   288  SER288     -0.2863
     37  CB        60.9980   33.8560  163.0960 C.3   288  SER288      0.2116
     38  OG        61.3490   34.9610  163.8940 O.3   288  SER288     -0.2180
     39  N         60.1470   32.2740  166.4140 N.3   291  VAL291     -0.1245
     40  CA        59.4230   31.0200  166.1810 C.3   291  VAL291      0.1561
     41  C         60.2280   29.7900  166.6370 C.2   291  VAL291      0.2260
     42  O         59.6340   28.7990  167.0920 O.2   291  VAL291     -0.2867
     43  CB        59.0020   30.8830  164.6670 C.3   291  VAL291      0.0252
     44  CG1       58.9660   29.4300  164.2100 C.3   291  VAL291      0.0019
     45  CG2       57.6540   31.5130  164.4460 C.3   291  VAL291      0.0019
     46  N         58.8330   25.8620  167.9510 N.3   296  LYS296     -0.1245
     47  CA        57.9290   25.4710  166.8910 C.3   296  LYS296      0.1561
     48  C         58.5920   24.8360  165.6890 C.2   296  LYS296      0.2260
     49  O         57.9500   24.7350  164.6480 O.2   296  LYS296     -0.2867
     50  CB        57.1240   26.6770  166.4330 C.3   296  LYS296      0.0271
     51  CG        55.6810   26.6240  166.8410 C.3   296  LYS296      0.0035
     52  CD        55.1650   28.0080  167.1930 C.3   296  LYS296      0.0206
     53  CE        53.9390   27.9330  168.1080 C.3   296  LYS296      0.1093
     54  NZ        54.1880   27.2310  169.4240 N.3   296  LYS296     -0.1314
     55  N         71.0190   31.7670  150.3470 N.3   323  SER323     -0.1217
     56  CA        70.4120   32.4450  151.4810 C.3   323  SER323      0.1889
     57  C         69.4720   31.5620  152.3000 C.2   323  SER323      0.2288
     58  O         68.4830   32.0610  152.8580 O.2   323  SER323     -0.2866
     59  CB        69.6560   33.6830  151.0170 C.3   323  SER323      0.2089
     60  OG        70.5550   34.6500  150.5190 O.3   323  SER323     -0.2183
     61  N         68.6550   30.3210  155.5560 N.3   325  VAL325     -0.1245
     62  CA        69.0180   30.6150  156.9440 C.3   325  VAL325      0.1561
     63  C         68.6460   29.5160  157.9490 C.2   325  VAL325      0.2260
     64  O         67.7570   28.6940  157.7110 O.2   325  VAL325     -0.2867
     65  CB        68.4690   31.9840  157.4370 C.3   325  VAL325      0.0252
     66  CG1       68.0460   32.8590  156.2570 C.3   325  VAL325      0.0019
     67  CG2       67.3420   31.7870  158.4030 C.3   325  VAL325      0.0019
     68  N         68.9470   28.3660  162.4040 N.3   327  TYR327     -0.1241
     69  CA        69.1010   28.8550  163.7380 C.3   327  TYR327      0.1605
     70  C         69.5480   27.7120  164.5870 C.2   327  TYR327      0.2264
     71  O         69.3450   26.5640  164.2130 O.2   327  TYR327     -0.2867
     72  CB        67.7890   29.4140  164.2430 C.3   327  TYR327      0.0534
     73  CG        67.3030   30.5610  163.4030 C.ar  327  TYR327     -0.0201
     74  CD1       66.6940   30.3330  162.1640 C.ar  327  TYR327     -0.0009
     75  CD2       67.4230   31.8740  163.8440 C.ar  327  TYR327     -0.0009
     76  CE1       66.1940   31.3840  161.4000 C.ar  327  TYR327      0.0417
     77  CE2       66.9360   32.9280  163.0760 C.ar  327  TYR327      0.0417
     78  CZ        66.3060   32.6690  161.8670 C.ar  327  TYR327      0.1957
     79  OH        65.6650   33.6900  161.2090 O.3   327  TYR327     -0.2866
@<TRIPOS>BOND
     1    55    56    1
     2    60    59    1
     3    59    56    1
     4    56    57    1
     5    57    58    2
     6    10     9    2
     7     9     8    1
     8    11    12    1
     9    11    13    1
    10    11     8    1
    11     8     7    1
    12    61    62    1
    13    66    65    1
    14    62    65    1
    15    62    63    1
    16     3     4    2
    17     3     2    1
    18    65    67    1
    19    32    30   ar
    20    64    63    2
    21     5     2    1
    22     5     6    1
    23     2     1    1
    24    30    31   ar
    25    30    29    1
    26    22    24   ar
    27    22    20   ar
    28    24    23   ar
    29    29    26    1
    30    26    25    1
    31    26    27    1
    32    28    27    2
    33    20    19   ar
    34    23    21   ar
    35    27    33   am
    36    79    78    1
    37    76    78   ar
    38    76    74   ar
    39    19    21   ar
    40    19    18    1
    41    33    34    1
    42    78    77   ar
    43    14    15    1
    44    74    73   ar
    45    34    37    1
    46    34    35    1
    47    68    69    1
    48    18    15    1
    49    15    16    1
    50    77    75   ar
    51    37    38    1
    52    36    35    2
    53    73    75   ar
    54    73    72    1
    55    69    72    1
    56    69    70    1
    57    44    43    1
    58    71    70    2
    59    16    17    2
    60    45    43    1
    61    49    48    2
    62    43    40    1
    63    48    47    1
    64    40    39    1
    65    40    41    1
    66    50    51    1
    67    50    47    1
    68    41    42    2
    69    51    52    1
    70    47    46    1
    71    52    53    1
    72    53    54    1
