@<TRIPOS>MOLECULE
tmp/1etsB00.pdb
 207 207 0 0 0
SMALL
GASTEIGER

@<TRIPOS>ATOM
      1  N        -35.0020  -20.2260   41.3970 N.3    43  HIS43      -0.1241
      2  CA       -34.1010  -21.3390   41.7210 C.3    43  HIS43       0.1621
      3  C        -33.2930  -21.9160   40.5830 C.2    43  HIS43       0.2264
      4  O        -32.4340  -22.7430   40.8620 O.2    43  HIS43      -0.2867
      5  CB       -34.8160  -22.5180   42.3810 C.3    43  HIS43       0.0745
      6  CG       -35.6570  -23.3080   41.4060 C.ar   43  HIS43       0.0817
      7  ND1      -36.9700  -23.1180   41.2370 N.ar   43  HIS43      -0.2268
      8  CD2      -35.2690  -24.4190   40.6890 C.ar   43  HIS43       0.1154
      9  CE1      -37.3890  -24.0720   40.4420 C.ar   43  HIS43       0.1986
     10  NE2      -36.3680  -24.8530   40.1200 N.ar   43  HIS43      -0.2212
     11  N        -29.5200  -21.0250   44.2200 N.3    47  TYR47      -0.1241
     12  CA       -29.8550  -21.8940   45.3200 C.3    47  TYR47       0.1605
     13  C        -28.5660  -22.2320   46.0510 C.2    47  TYR47       0.2264
     14  O        -27.8410  -23.1980   45.7630 O.2    47  TYR47      -0.2867
     15  CB       -30.5710  -23.1420   44.8350 C.3    47  TYR47       0.0534
     16  CG       -31.0020  -23.9530   46.0240 C.ar   47  TYR47      -0.0201
     17  CD1      -31.7670  -23.3390   46.9980 C.ar   47  TYR47      -0.0009
     18  CD2      -30.5250  -25.2460   46.1420 C.ar   47  TYR47      -0.0009
     19  CE1      -32.0730  -24.0270   48.1390 C.ar   47  TYR47       0.0417
     20  CE2      -30.8340  -25.9380   47.2990 C.ar   47  TYR47       0.0417
     21  CZ       -31.5960  -25.3140   48.2640 C.ar   47  TYR47       0.1957
     22  OH       -31.8790  -26.0120   49.4080 O.3    47  TYR47      -0.2866
     23  N        -26.7760  -25.7610   47.0910 N.3    50  TRP50      -0.1241
     24  CA       -26.1510  -26.6030   46.0890 C.3    50  TRP50       0.1605
     25  C        -25.2170  -25.7280   45.2640 C.2    50  TRP50       0.2264
     26  O        -25.0970  -25.8780   44.0440 O.2    50  TRP50      -0.2867
     27  CB       -27.1960  -27.3040   45.1810 C.3    50  TRP50       0.0550
     28  CG       -28.3650  -28.0710   45.8010 C.ar   50  TRP50       0.0003
     29  CD1      -28.4020  -28.4940   47.1080 C.ar   50  TRP50       0.0946
     30  CD2      -29.4780  -28.4460   45.0930 C.ar   50  TRP50       0.0152
     31  NE1      -29.5420  -29.1340   47.2220 N.ar   50  TRP50      -0.2442
     32  CE2      -30.2020  -29.1260   46.0470 C.ar   50  TRP50       0.0810
     33  CE3      -29.9470  -28.2960   43.8150 C.ar   50  TRP50       0.0012
     34  CZ2      -31.4210  -29.6820   45.7170 C.ar   50  TRP50       0.0191
     35  CZ3      -31.1570  -28.8450   43.4750 C.ar   50  TRP50       0.0001
     36  CH2      -31.8860  -29.5330   44.4270 C.ar   50  TRP50       0.0015
     37  N        -25.3440  -23.1510   43.7800 N.3    52  LYS52      -0.1245
     38  CA       -25.7860  -22.6980   42.5030 C.3    52  LYS52       0.1561
     39  C        -26.0000  -21.1970   42.7040 C.2    52  LYS52       0.2260
     40  O        -26.8220  -20.7700   43.5040 O.2    52  LYS52      -0.2867
     41  CB       -27.0450  -23.3470   42.1770 C.3    52  LYS52       0.0271
     42  CG       -27.5040  -22.7420   40.8680 C.3    52  LYS52       0.0035
     43  CD       -28.9790  -22.8940   40.7250 C.3    52  LYS52       0.0206
     44  CE       -29.2930  -24.3840   40.7630 C.3    52  LYS52       0.1093
     45  NZ       -30.7190  -24.6030   40.7400 N.3    52  LYS52      -0.1314
     46  N        -35.0600  -18.9510   50.0360 N.3    92  TRP92      -0.1241
     47  CA       -34.5260  -20.2650   49.6990 C.3    92  TRP92       0.1605
     48  C        -34.3170  -21.0980   50.9270 C.2    92  TRP92       0.2264
     49  O        -34.3470  -22.3310   50.9060 O.2    92  TRP92      -0.2867
     50  CB       -33.1860  -20.2190   48.9130 C.3    92  TRP92       0.0550
     51  CG       -32.0820  -19.2730   49.4100 C.ar   92  TRP92       0.0003
     52  CD1      -32.0330  -18.0010   48.9020 C.ar   92  TRP92       0.0946
     53  CD2      -31.0870  -19.5050   50.3460 C.ar   92  TRP92       0.0152
     54  NE1      -31.0180  -17.4220   49.4950 N.ar   92  TRP92      -0.2442
     55  CE2      -30.4290  -18.2820   50.3360 C.ar   92  TRP92       0.0810
     56  CE3      -30.6330  -20.5260   51.1500 C.ar   92  TRP92       0.0012
     57  CZ2      -29.3450  -18.0580   51.1620 C.ar   92  TRP92       0.0191
     58  CZ3      -29.5520  -20.3090   51.9720 C.ar   92  TRP92       0.0001
     59  CH2      -28.9030  -19.0900   51.9630 C.ar   92  TRP92       0.0015
     60  N        -35.9470  -21.9700   53.4230 N.3    94  GLU94      -0.1231
     61  CA       -37.1670  -22.3050   54.1370 C.3    94  GLU94       0.1699
     62  C        -38.0340  -22.9780   53.1060 C.2    94  GLU94       0.2592
     63  O        -38.1460  -24.2020   53.1470 O.2    94  GLU94      -0.2718
     64  CB       -37.9160  -21.0780   54.6870 C.3    94  GLU94       0.0402
     65  CG       -38.6580  -21.3340   55.9850 C.3    94  GLU94       0.1161
     66  CD       -40.0110  -20.6440   56.0350 C.2    94  GLU94       0.3649
     67  OE1      -40.9640  -21.2590   55.5550 O.co2  94  GLU94      -0.2457
     68  OE2      -40.1160  -19.5200   56.5430 O.co2  94  GLU94      -0.2457
     69  N        -38.5930  -22.2470   52.1410 N.am   95  ASN95      -0.1960
     70  CA       -39.7470  -22.7560   51.4180 C.3    95  ASN95       0.1819
     71  C        -39.9090  -22.1810   50.0210 C.2    95  ASN95       0.2621
     72  O        -41.0180  -22.1530   49.4930 O.2    95  ASN95      -0.2715
     73  CB       -41.0530  -22.5380   52.2210 C.3    95  ASN95       0.1195
     74  CG       -41.4380  -21.0910   52.4320 C.2    95  ASN95       0.2630
     75  OD1      -40.5740  -20.2200   52.4550 O.2    95  ASN95      -0.2716
     76  ND2      -42.6950  -20.7350   52.6430 N.am   95  ASN95      -0.0877
     77  N        -38.8150  -21.7460   49.3930 N.am   96  LEU96      -0.1977
     78  CA       -38.8090  -21.2550   48.0170 C.3    96  LEU96       0.1596
     79  C        -39.8790  -20.2080   47.7210 C.2    96  LEU96       0.2287
     80  O        -40.5730  -20.1820   46.6940 O.2    96  LEU96      -0.2864
     81  CB       -38.9290  -22.3960   46.9840 C.3    96  LEU96       0.0297
     82  CG       -37.7400  -23.1710   46.5730 C.3    96  LEU96       0.0022
     83  CD1      -38.0110  -23.7790   45.1960 C.3    96  LEU96       0.0001
     84  CD2      -36.5330  -22.2630   46.4820 C.3    96  LEU96       0.0001
     85  N        -43.7710  -28.7480   54.4340 N.3   179  ILE179     -0.1245
     86  CA       -43.1320  -27.4640   54.1360 C.3   179  ILE179      0.1561
     87  C        -44.1780  -26.3350   54.1210 C.2   179  ILE179      0.2260
     88  O        -45.1920  -26.4340   53.4230 O.2   179  ILE179     -0.2867
     89  CB       -42.3080  -27.6240   52.7930 C.3   179  ILE179      0.0252
     90  CG1      -40.9500  -28.3410   52.9850 C.3   179  ILE179      0.0019
     91  CG2      -42.0150  -26.3010   52.1510 C.3   179  ILE179      0.0019
     92  CD1      -40.7490  -29.4560   51.9430 C.3   179  ILE179      0.0001
     93  N        -47.0680  -34.9640   36.0340 N.3   199  ASP199     -0.1225
     94  CA       -46.3230  -34.0170   36.8350 C.3   199  ASP199      0.1805
     95  C        -45.2720  -33.4610   35.9190 C.2   199  ASP199      0.2598
     96  O        -45.0150  -33.9830   34.8390 O.2   199  ASP199     -0.2718
     97  CB       -45.6400  -34.7150   37.9820 C.3   199  ASP199      0.1424
     98  CG       -45.3600  -33.8730   39.2200 C.2   199  ASP199      0.3668
     99  OD1      -45.3200  -32.6480   39.1570 O.co2 199  ASP199     -0.2456
    100  OD2      -45.1540  -34.4650   40.2670 O.co2 199  ASP199     -0.2456
    101  N        -44.7440  -32.3370   36.3330 N.am  200  ALA200     -0.1966
    102  CA       -43.4120  -31.9140   36.0050 C.3   200  ALA200      0.1728
    103  C        -42.3400  -32.5580   36.8570 C.2   200  ALA200      0.2616
    104  O        -42.5560  -32.9480   37.9900 O.2   200  ALA200     -0.2715
    105  CB       -43.2980  -30.4480   36.3020 C.3   200  ALA200      0.0334
    106  N        -41.1020  -32.4770   36.4080 N.am  201  CYS201     -0.1954
    107  CA       -39.9950  -33.1160   37.0600 C.3   201  CYS201      0.1843
    108  C        -38.8230  -32.2250   36.7510 C.2   201  CYS201      0.2625
    109  O        -38.9660  -31.1750   36.1170 O.2   201  CYS201     -0.2714
    110  CB       -39.9100  -34.4680   36.4040 C.3   201  CYS201      0.0997
    111  SG       -39.1000  -35.6960   37.4140 S.3   201  CYS201     -0.0797
    112  N        -37.6600  -32.6220   37.2420 N.am  202  GLU202     -0.1963
    113  CA       -36.3720  -31.9300   37.0900 C.3   202  GLU202      0.1733
    114  C        -36.0510  -31.4070   35.6980 C.2   202  GLU202      0.2616
    115  O        -36.0950  -32.1650   34.7240 O.2   202  GLU202     -0.2715
    116  CB       -35.2400  -32.8650   37.4910 C.3   202  GLU202      0.0429
    117  CG       -35.0230  -33.1720   38.9940 C.3   202  GLU202      0.1163
    118  CD       -36.0770  -33.8150   39.9270 C.2   202  GLU202      0.3649
    119  OE1      -36.7550  -34.8080   39.6230 O.co2 202  GLU202     -0.2457
    120  OE2      -36.1470  -33.2880   41.0430 O.co2 202  GLU202     -0.2457
    121  N        -35.7670  -30.1170   35.5630 N.am  203  GLY203     -0.1955
    122  CA       -35.5570  -29.5250   34.2460 C.3   203  GLY203      0.1869
    123  C        -36.8050  -28.9470   33.6220 C.2   203  GLY203      0.2309
    124  O        -36.7250  -28.2710   32.5760 O.2   203  GLY203     -0.2863
    125  N        -38.7520  -27.0840   35.8300 N.3   205  SER205     -0.1217
    126  CA       -38.6330  -25.8390   36.5760 C.3   205  SER205      0.1889
    127  C        -38.2760  -24.5990   35.7690 C.2   205  SER205      0.2288
    128  O        -37.5850  -24.6560   34.7330 O.2   205  SER205     -0.2866
    129  CB       -37.5560  -25.9700   37.5960 C.3   205  SER205      0.2089
    130  OG       -37.7650  -27.0370   38.4620 O.3   205  SER205     -0.2183
    131  N        -43.1460  -23.4200   37.1650 N.3   225  VAL225     -0.1231
    132  CA       -42.7450  -24.5830   37.9520 C.3   225  VAL225      0.1692
    133  C        -41.5990  -24.1690   38.8810 C.2   225  VAL225      0.2593
    134  O        -40.5390  -23.6220   38.4930 O.2   225  VAL225     -0.2718
    135  CB       -42.3410  -25.7120   36.9910 C.3   225  VAL225      0.0266
    136  CG1      -41.9200  -26.9570   37.7290 C.3   225  VAL225      0.0020
    137  CG2      -43.4860  -25.9850   36.0560 C.3   225  VAL225      0.0020
    138  N        -41.9740  -24.3930   40.1340 N.am  226  SER226     -0.1938
    139  CA       -41.1690  -24.0980   41.2990 C.3   226  SER226      0.2055
    140  C        -40.8480  -25.4180   42.0250 C.2   226  SER226      0.2643
    141  O        -39.6750  -25.7050   41.9560 O.2   226  SER226     -0.2714
    142  CB       -41.9680  -23.1310   42.1640 C.3   226  SER226      0.2130
    143  OG       -41.4280  -22.7700   43.4330 O.3   226  SER226     -0.2179
    144  N        -41.6060  -26.3110   42.6880 N.am  227  TRP227     -0.1959
    145  CA       -40.9670  -27.3620   43.5010 C.3   227  TRP227      0.1771
    146  C        -41.9030  -28.5110   43.7250 C.2   227  TRP227      0.2620
    147  O        -43.0740  -28.5280   43.2820 O.2   227  TRP227     -0.2715
    148  CB       -40.4830  -26.8310   44.8590 C.3   227  TRP227      0.0590
    149  CG       -41.5980  -26.3700   45.8240 C.ar  227  TRP227      0.0006
    150  CD1      -42.0650  -25.0900   45.8220 C.ar  227  TRP227      0.0946
    151  CD2      -42.1450  -27.1110   46.8440 C.ar  227  TRP227      0.0152
    152  NE1      -42.8840  -25.0070   46.8360 N.ar  227  TRP227     -0.2442
    153  CE2      -42.9520  -26.1770   47.4740 C.ar  227  TRP227      0.0810
    154  CE3      -42.0620  -28.3910   47.3280 C.ar  227  TRP227      0.0012
    155  CZ2      -43.7050  -26.5150   48.5850 C.ar  227  TRP227      0.0191
    156  CZ3      -42.8120  -28.7320   48.4350 C.ar  227  TRP227      0.0001
    157  CH2      -43.6160  -27.8060   49.0670 C.ar  227  TRP227      0.0015
    158  N        -41.3340  -29.4980   44.3800 N.am  228  GLY228     -0.1940
    159  CA       -42.1050  -30.6360   44.8290 C.3   228  GLY228      0.2014
    160  C        -41.2470  -31.8550   45.2300 C.2   228  GLY228      0.2639
    161  O        -40.1650  -32.1000   44.6900 O.2   228  GLY228     -0.2714
    162  N        -41.8500  -32.7270   46.0420 N.am  229  GLU229     -0.1963
    163  CA       -41.1700  -33.8910   46.5510 C.3   229  GLU229      0.1733
    164  C        -41.2650  -35.0360   45.5820 C.2   229  GLU229      0.2617
    165  O        -42.2610  -35.7360   45.4370 O.2   229  GLU229     -0.2715
    166  CB       -41.7240  -34.1980   47.9000 C.3   229  GLU229      0.0429
    167  CG       -41.5590  -32.9440   48.7400 C.3   229  GLU229      0.1163
    168  CD       -42.8040  -32.6310   49.5290 C.2   229  GLU229      0.3649
    169  OE1      -43.8400  -32.2230   48.9690 O.co2 229  GLU229     -0.2457
    170  OE2      -42.6830  -32.7970   50.7290 O.co2 229  GLU229     -0.2457
    171  N        -40.2440  -35.1310   44.7660 N.am  230  GLY230     -0.1940
    172  CA       -40.1910  -36.2220   43.8330 C.3   230  GLY230      0.2014
    173  C        -40.7810  -35.7000   42.5700 C.2   230  GLY230      0.2639
    174  O        -40.9240  -34.4840   42.3400 O.2   230  GLY230     -0.2714
    175  N        -41.1590  -36.6620   41.7510 N.am  231  CYS231     -0.1967
    176  CA       -41.9790  -36.4070   40.5770 C.3   231  CYS231      0.1712
    177  C        -43.0380  -37.4990   40.7130 C.2   231  CYS231      0.2296
    178  O        -42.6570  -38.6570   40.8860 O.2   231  CYS231     -0.2864
    179  CB       -41.1180  -36.5780   39.2930 C.3   231  CYS231      0.0983
    180  SG       -39.7670  -35.4640   39.1930 S.3   231  CYS231     -0.0798
    181  N        -47.7750  -30.9720   42.6930 N.3   238  GLY238     -0.1210
    182  CA       -46.7280  -30.1180   42.1380 C.3   238  GLY238      0.1956
    183  C        -46.9780  -28.6680   42.5210 C.2   238  GLY238      0.2612
    184  O        -48.1400  -28.2530   42.6110 O.2   238  GLY238     -0.2717
    185  N        -45.9530  -27.8920   42.8250 N.am  239  PHE239     -0.1962
    186  CA       -46.1970  -26.5680   43.3520 C.3   239  PHE239      0.1771
    187  C        -45.6840  -25.5180   42.4120 C.2   239  PHE239      0.2619
    188  O        -44.5780  -25.6920   41.8610 O.2   239  PHE239     -0.2715
    189  CB       -45.4660  -26.4410   44.6350 C.3   239  PHE239      0.0574
    190  CG       -46.3420  -26.8060   45.7900 C.ar  239  PHE239     -0.0200
    191  CD1      -47.0900  -25.8230   46.3920 C.ar  239  PHE239     -0.0042
    192  CD2      -46.3730  -28.1000   46.2350 C.ar  239  PHE239     -0.0042
    193  CE1      -47.8630  -26.1410   47.4920 C.ar  239  PHE239     -0.0003
    194  CE2      -47.1410  -28.4050   47.3210 C.ar  239  PHE239     -0.0003
    195  CZ       -47.8880  -27.4390   47.9480 C.ar  239  PHE239     -0.0000
    196  N        -46.4420  -24.4300   42.2020 N.am  240  TYR240     -0.1974
    197  CA       -46.1380  -23.4650   41.1340 C.3   240  TYR240      0.1639
    198  C        -46.1430  -22.0570   41.7110 C.2   240  TYR240      0.2290
    199  O        -46.8840  -21.7640   42.6610 O.2   240  TYR240     -0.2864
    200  CB       -47.1130  -23.5870   39.9060 C.3   240  TYR240      0.0560
    201  CG       -47.2200  -24.9930   39.2450 C.ar  240  TYR240     -0.0198
    202  CD1      -47.7990  -26.0680   39.9130 C.ar  240  TYR240     -0.0009
    203  CD2      -46.6490  -25.2350   38.0180 C.ar  240  TYR240     -0.0009
    204  CE1      -47.8040  -27.3400   39.3970 C.ar  240  TYR240      0.0417
    205  CE2      -46.6470  -26.5160   37.5020 C.ar  240  TYR240      0.0417
    206  CZ       -47.2260  -27.5610   38.1970 C.ar  240  TYR240      0.1957
    207  OH       -47.3330  -28.8220   37.6020 O.3   240  TYR240     -0.2866
@<TRIPOS>BOND
     1   124   123    2
     2   123   122    1
     3   122   121    1
     4   115   114    2
     5   128   127    2
     6    96    95    2
     7   121   114   am
     8   114   113    1
     9   127   126    1
    10   125   126    1
    11    95   101   am
    12    95    94    1
    13   102   105    1
    14   102   101    1
    15   102   103    1
    16    93    94    1
    17   137   135    1
    18   109   108    2
    19   110   107    1
    20   110   111    1
    21   106   103   am
    22   106   107    1
    23   126   129    1
    24   108   107    1
    25   108   112   am
    26    94    97    1
    27   103   104    2
    28   135   136    1
    29   135   132    1
    30   113   112    1
    31   113   116    1
    32   131   132    1
    33   111   180    1
    34   116   117    1
    35   205   203   ar
    36   205   206   ar
    37   129   130    1
    38   207   206    1
    39   132   133    1
    40    97    98    1
    41   203   201   ar
    42   206   204   ar
    43   134   133    2
    44   133   138   am
    45   117   118    1
    46    99    98   ar
    47   180   179    1
    48    98   100   ar
    49   201   200    1
    50   201   202   ar
    51   179   176    1
    52   204   202   ar
    53   119   118   ar
    54   200   197    1
    55   118   120   ar
    56    10     9   ar
    57    10     8   ar
    58   138   139    1
    59     9     7   ar
    60   176   177    1
    61   176   175    1
    62     3     4    2
    63     3     2    1
    64     8     6   ar
    65   177   178    2
    66    43    44    1
    67    43    42    1
    68    45    44    1
    69    42    41    1
    70   197   198    1
    71   197   196    1
    72     7     6   ar
    73   139   140    1
    74   139   142    1
    75     1     2    1
    76     6     5    1
    77   198   199    2
    78     2     5    1
    79   175   173   am
    80   188   187    2
    81   141   140    2
    82   140   144   am
    83   182   183    1
    84   182   181    1
    85   142   143    1
    86    41    38    1
    87   196   187   am
    88   174   173    2
    89   187   186    1
    90    38    39    1
    91    38    37    1
    92   183   184    2
    93   183   185   am
    94   173   172    1
    95   144   145    1
    96    39    40    2
    97   185   186    1
    98   147   146    2
    99   186   189    1
   100    35    33   ar
   101    35    36   ar
   102   145   146    1
   103   145   148    1
   104   146   158   am
   105    33    30   ar
   106   172   171    1
   107    26    25    2
   108    11    12    1
   109   158   159    1
   110    36    34   ar
   111   189   190    1
   112   161   160    2
   113   171   164   am
   114   159   160    1
   115    15    12    1
   116    15    16    1
   117   148   149    1
   118    30    28   ar
   119    30    32   ar
   120    27    28    1
   121    27    24    1
   122    83    82    1
   123   160   162   am
   124    25    24    1
   125    12    13    1
   126   165   164    2
   127   164   163    1
   128    34    32   ar
   129    14    13    2
   130   190   192   ar
   131   190   191   ar
   132    28    29   ar
   133   150   149   ar
   134   150   152   ar
   135   149   151   ar
   136    16    18   ar
   137    16    17   ar
   138   162   163    1
   139    32    31   ar
   140    24    23    1
   141    18    20   ar
   142   192   194   ar
   143   191   193   ar
   144    84    82    1
   145   163   166    1
   146    82    81    1
   147    80    79    2
   148   152   153   ar
   149   151   154   ar
   150   151   153   ar
   151    81    78    1
   152    17    19   ar
   153    29    31   ar
   154    20    21   ar
   155   194   195   ar
   156   154   156   ar
   157   153   155   ar
   158   193   195   ar
   159    79    78    1
   160   166   167    1
   161    78    77    1
   162    19    21   ar
   163    21    22    1
   164   156   157   ar
   165   155   157   ar
   166   167   168    1
   167    52    51   ar
   168    52    54   ar
   169    50    51    1
   170    50    47    1
   171   169   168   ar
   172    77    71   am
   173    51    53   ar
   174    72    71    2
   175    54    55   ar
   176   168   170   ar
   177    47    46    1
   178    47    48    1
   179    71    70    1
   180    55    53   ar
   181    55    57   ar
   182    53    56   ar
   183    49    48    2
   184    56    58   ar
   185    57    59   ar
   186    70    69    1
   187    70    73    1
   188    92    90    1
   189    59    58   ar
   190    69    62   am
   191    91    89    1
   192    73    74    1
   193    74    75    2
   194    74    76   am
   195    89    90    1
   196    89    86    1
   197    62    63    2
   198    62    61    1
   199    60    61    1
   200    88    87    2
   201    87    86    1
   202    86    85    1
   203    61    64    1
   204    64    65    1
   205    67    66   ar
   206    65    66    1
   207    66    68   ar
