@<TRIPOS>MOLECULE
tmp/1ettB00.pdb
 203 203 0 0 0
SMALL
GASTEIGER

@<TRIPOS>ATOM
      1  N        -35.1730  -20.4090   41.5650 N.3    43  HIS43      -0.1241
      2  CA       -34.3070  -21.5450   41.8740 C.3    43  HIS43       0.1621
      3  C        -33.5290  -22.0110   40.6720 C.2    43  HIS43       0.2264
      4  O        -32.6340  -22.8370   40.8380 O.2    43  HIS43      -0.2867
      5  CB       -35.0200  -22.7720   42.4660 C.3    43  HIS43       0.0745
      6  CG       -35.9570  -23.5230   41.5260 C.ar   43  HIS43       0.0817
      7  ND1      -37.2750  -23.3840   41.3700 N.ar   43  HIS43      -0.2268
      8  CD2      -35.5070  -24.4820   40.6410 C.ar   43  HIS43       0.1154
      9  CE1      -37.6380  -24.1940   40.4160 C.ar   43  HIS43       0.1986
     10  NE2      -36.5820  -24.8370   39.9920 N.ar   43  HIS43      -0.2212
     11  N        -29.9330  -21.3590   43.8290 N.3    47  TYR47      -0.1241
     12  CA       -30.1460  -22.2450   44.9390 C.3    47  TYR47       0.1605
     13  C        -28.7750  -22.5520   45.5980 C.2    47  TYR47       0.2264
     14  O        -28.0840  -23.5120   45.2210 O.2    47  TYR47      -0.2867
     15  CB       -30.7950  -23.5170   44.4430 C.3    47  TYR47       0.0534
     16  CG       -31.3680  -24.3160   45.5870 C.ar   47  TYR47      -0.0201
     17  CD1      -31.9550  -23.6380   46.6480 C.ar   47  TYR47      -0.0009
     18  CD2      -31.3160  -25.6930   45.5290 C.ar   47  TYR47      -0.0009
     19  CE1      -32.5160  -24.3490   47.6760 C.ar   47  TYR47       0.0417
     20  CE2      -31.8670  -26.4020   46.5680 C.ar   47  TYR47       0.0417
     21  CZ       -32.4600  -25.7210   47.6200 C.ar   47  TYR47       0.1957
     22  OH       -32.9970  -26.4110   48.6730 O.3    47  TYR47      -0.2866
     23  N        -26.8810  -26.1450   46.7410 N.3    50  TRP50      -0.1241
     24  CA       -26.4920  -27.0280   45.6690 C.3    50  TRP50       0.1605
     25  C        -25.4510  -26.3740   44.7370 C.2    50  TRP50       0.2264
     26  O        -25.3580  -26.7190   43.5470 O.2    50  TRP50      -0.2867
     27  CB       -27.8050  -27.4040   44.9610 C.3    50  TRP50       0.0550
     28  CG       -28.6910  -28.3380   45.7790 C.ar   50  TRP50       0.0003
     29  CD1      -28.4010  -28.6970   47.0690 C.ar   50  TRP50       0.0946
     30  CD2      -29.7870  -28.9900   45.3010 C.ar   50  TRP50       0.0152
     31  NE1      -29.2980  -29.5810   47.3980 N.ar   50  TRP50      -0.2442
     32  CE2      -30.1420  -29.7950   46.3780 C.ar   50  TRP50       0.0810
     33  CE3      -30.4950  -29.0250   44.1260 C.ar   50  TRP50       0.0012
     34  CZ2      -31.2240  -30.6530   46.3290 C.ar   50  TRP50       0.0191
     35  CZ3      -31.5560  -29.9030   44.0810 C.ar   50  TRP50       0.0001
     36  CH2      -31.9230  -30.7040   45.1510 C.ar   50  TRP50       0.0015
     37  N        -25.9310  -23.7790   43.1750 N.3    52  LYS52      -0.1245
     38  CA       -26.4760  -22.9340   42.1420 C.3    52  LYS52       0.1561
     39  C        -26.2860  -21.4600   42.4970 C.2    52  LYS52       0.2260
     40  O        -26.8370  -20.9770   43.4960 O.2    52  LYS52      -0.2867
     41  CB       -27.9270  -23.2040   41.9180 C.3    52  LYS52       0.0271
     42  CG       -28.1500  -24.5050   41.2100 C.3    52  LYS52       0.0035
     43  CD       -29.3500  -24.2490   40.3130 C.3    52  LYS52       0.0206
     44  CE       -29.4480  -25.2500   39.1720 C.3    52  LYS52       0.1093
     45  NZ       -30.3560  -24.7720   38.1440 N.3    52  LYS52      -0.1314
     46  N        -35.1610  -18.8740   50.1570 N.3    92  TRP92      -0.1241
     47  CA       -34.7250  -20.1930   49.7470 C.3    92  TRP92       0.1605
     48  C        -34.5180  -21.0770   50.9490 C.2    92  TRP92       0.2264
     49  O        -34.8150  -22.2630   50.9280 O.2    92  TRP92      -0.2867
     50  CB       -33.4720  -20.1200   48.8420 C.3    92  TRP92       0.0550
     51  CG       -32.2790  -19.3360   49.3620 C.ar   92  TRP92       0.0003
     52  CD1      -32.1580  -17.9940   49.1250 C.ar   92  TRP92       0.0946
     53  CD2      -31.2600  -19.8450   50.1260 C.ar   92  TRP92       0.0152
     54  NE1      -31.0640  -17.6350   49.7530 N.ar   92  TRP92      -0.2442
     55  CE2      -30.4980  -18.7030   50.3620 C.ar   92  TRP92       0.0810
     56  CE3      -30.8880  -21.0870   50.6370 C.ar   92  TRP92       0.0012
     57  CZ2      -29.3460  -18.7980   51.1310 C.ar   92  TRP92       0.0191
     58  CZ3      -29.7400  -21.1780   51.4040 C.ar   92  TRP92       0.0001
     59  CH2      -28.9760  -20.0400   51.6480 C.ar   92  TRP92       0.0015
     60  N        -35.9270  -22.0560   53.6610 N.3    94  GLU94      -0.1231
     61  CA       -37.1430  -22.2470   54.4100 C.3    94  GLU94       0.1699
     62  C        -38.0120  -22.8920   53.3420 C.2    94  GLU94       0.2592
     63  O        -38.0420  -24.1160   53.2860 O.2    94  GLU94      -0.2718
     64  CB       -37.7000  -20.8870   54.9000 C.3    94  GLU94       0.0402
     65  CG       -38.2640  -20.7830   56.3140 C.3    94  GLU94       0.1161
     66  CD       -39.6200  -20.0410   56.3540 C.2    94  GLU94       0.3649
     67  OE1      -40.6120  -20.5730   55.8560 O.co2  94  GLU94      -0.2457
     68  OE2      -39.7220  -18.9200   56.8650 O.co2  94  GLU94      -0.2457
     69  N        -38.6770  -22.1780   52.4330 N.am   95  ASN95      -0.1960
     70  CA       -39.7100  -22.7560   51.5500 C.3    95  ASN95       0.1819
     71  C        -39.7560  -22.2970   50.0890 C.2    95  ASN95       0.2621
     72  O        -40.7330  -22.5710   49.4070 O.2    95  ASN95      -0.2715
     73  CB       -41.1400  -22.5260   52.1140 C.3    95  ASN95       0.1195
     74  CG       -41.4430  -21.0630   52.4080 C.2    95  ASN95       0.2630
     75  OD1      -40.6540  -20.1940   52.0440 O.2    95  ASN95      -0.2716
     76  ND2      -42.5160  -20.6900   53.0940 N.am   95  ASN95      -0.0877
     77  N        -38.7250  -21.6340   49.5480 N.am   96  LEU96      -0.1977
     78  CA       -38.7500  -20.9970   48.2230 C.3    96  LEU96       0.1596
     79  C        -39.9870  -20.1280   48.0220 C.2    96  LEU96       0.2287
     80  O        -40.7400  -20.3150   47.0580 O.2    96  LEU96      -0.2864
     81  CB       -38.6540  -22.0310   47.0740 C.3    96  LEU96       0.0297
     82  CG       -37.4900  -22.9510   46.8220 C.3    96  LEU96       0.0022
     83  CD1      -37.8310  -23.8640   45.6760 C.3    96  LEU96       0.0001
     84  CD2      -36.2180  -22.1960   46.5260 C.3    96  LEU96       0.0001
     85  N        -44.4900  -28.5710   54.2640 N.3   179  ILE179     -0.1245
     86  CA       -43.7430  -27.3390   54.0550 C.3   179  ILE179      0.1561
     87  C        -44.6540  -26.1480   54.0330 C.2   179  ILE179      0.2260
     88  O        -45.7750  -26.2520   53.5680 O.2   179  ILE179     -0.2867
     89  CB       -42.9050  -27.5090   52.7360 C.3   179  ILE179      0.0252
     90  CG1      -41.6430  -28.2930   53.0790 C.3   179  ILE179      0.0019
     91  CG2      -42.4740  -26.2150   52.1110 C.3   179  ILE179      0.0019
     92  CD1      -41.0630  -29.1460   51.9700 C.3   179  ILE179      0.0001
     93  N        -47.1590  -34.8830   35.9910 N.3   199  ASP199     -0.1225
     94  CA       -46.4990  -33.8800   36.8090 C.3   199  ASP199      0.1805
     95  C        -45.3560  -33.2260   36.0620 C.2   199  ASP199      0.2598
     96  O        -44.8160  -33.8650   35.1710 O.2   199  ASP199     -0.2718
     97  CB       -45.9630  -34.5620   38.0410 C.3   199  ASP199      0.1424
     98  CG       -45.5500  -33.6860   39.2060 C.2   199  ASP199      0.3668
     99  OD1      -46.0220  -32.5550   39.3770 O.co2 199  ASP199     -0.2456
    100  OD2      -44.7170  -34.1690   39.9580 O.co2 199  ASP199     -0.2456
    101  N        -44.9560  -31.9920   36.3850 N.am  200  ALA200     -0.1966
    102  CA       -43.5530  -31.5790   36.2720 C.3   200  ALA200      0.1728
    103  C        -42.4800  -32.3300   37.1320 C.2   200  ALA200      0.2616
    104  O        -42.8390  -33.1290   37.9960 O.2   200  ALA200     -0.2715
    105  CB       -43.4310  -30.1010   36.5790 C.3   200  ALA200      0.0334
    106  N        -41.1680  -32.1130   37.0240 N.am  201  CYS201     -0.1954
    107  CA       -40.1320  -33.0540   37.4740 C.3   201  CYS201      0.1843
    108  C        -38.8150  -32.3580   37.1150 C.2   201  CYS201      0.2625
    109  O        -38.7920  -31.3090   36.4390 O.2   201  CYS201     -0.2714
    110  CB       -40.2080  -34.3780   36.7060 C.3   201  CYS201      0.0997
    111  SG       -39.0320  -35.5920   37.3400 S.3   201  CYS201     -0.0798
    112  N        -37.6790  -32.9030   37.5440 N.am  202  GLU202     -0.1977
    113  CA       -36.3640  -32.2570   37.3600 C.3   202  GLU202      0.1602
    114  C        -36.0510  -31.9960   35.8760 C.2   202  GLU202      0.2287
    115  O        -36.0490  -32.8830   34.9890 O.2   202  GLU202     -0.2864
    116  CB       -35.2260  -33.0950   37.9950 C.3   202  GLU202      0.0415
    117  CG       -35.4010  -33.7450   39.2830 C.3   202  GLU202      0.1163
    118  CD       -35.7520  -35.2510   39.0270 C.2   202  GLU202      0.3649
    119  OE1      -35.8080  -36.0620   38.0110 O.co2 202  GLU202     -0.2457
    120  OE2      -36.0680  -35.7600   39.9390 O.co2 202  GLU202     -0.2457
    121  N        -38.4620  -27.2190   35.7640 N.3   205  SER205     -0.1217
    122  CA       -38.5430  -26.0920   36.6980 C.3   205  SER205      0.1889
    123  C        -38.3330  -24.8260   35.8800 C.2   205  SER205      0.2288
    124  O        -37.6530  -24.8450   34.8440 O.2   205  SER205     -0.2866
    125  CB       -37.4380  -26.2370   37.6870 C.3   205  SER205      0.2089
    126  OG       -37.1310  -27.6260   37.9220 O.3   205  SER205     -0.2183
    127  N        -43.4440  -23.2990   37.1360 N.3   225  VAL225     -0.1231
    128  CA       -43.0940  -24.5440   37.7570 C.3   225  VAL225      0.1692
    129  C        -42.0010  -24.2750   38.7800 C.2   225  VAL225      0.2593
    130  O        -40.8380  -24.0100   38.4550 O.2   225  VAL225     -0.2718
    131  CB       -42.7130  -25.5530   36.6400 C.3   225  VAL225      0.0266
    132  CG1      -42.3000  -26.8440   37.2810 C.3   225  VAL225      0.0020
    133  CG2      -43.8680  -25.7790   35.6340 C.3   225  VAL225      0.0020
    134  N        -42.4590  -24.2590   40.0260 N.am  226  SER226     -0.1938
    135  CA       -41.5500  -24.1250   41.1310 C.3   226  SER226      0.2055
    136  C        -41.1430  -25.4780   41.6820 C.2   226  SER226      0.2643
    137  O        -40.0660  -25.8870   41.2910 O.2   226  SER226     -0.2714
    138  CB       -42.0620  -23.1600   42.2190 C.3   226  SER226      0.2130
    139  OG       -40.9230  -22.8510   43.0470 O.3   226  SER226     -0.2179
    140  N        -41.8010  -26.3060   42.4940 N.am  227  TRP227     -0.1959
    141  CA       -41.0850  -27.3810   43.1730 C.3   227  TRP227      0.1771
    142  C        -41.9200  -28.6430   43.3040 C.2   227  TRP227      0.2620
    143  O        -43.0000  -28.7950   42.7420 O.2   227  TRP227     -0.2715
    144  CB       -40.4720  -26.9160   44.5550 C.3   227  TRP227      0.0590
    145  CG       -41.3810  -26.3500   45.6670 C.ar  227  TRP227      0.0006
    146  CD1      -41.4330  -24.9940   45.8800 C.ar  227  TRP227      0.0946
    147  CD2      -42.0840  -27.0410   46.6360 C.ar  227  TRP227      0.0152
    148  NE1      -42.1380  -24.8240   46.9690 N.ar  227  TRP227     -0.2442
    149  CE2      -42.5410  -26.0140   47.4390 C.ar  227  TRP227      0.0810
    150  CE3      -42.4130  -28.3400   46.9620 C.ar  227  TRP227      0.0012
    151  CZ2      -43.2980  -26.2770   48.5600 C.ar  227  TRP227      0.0191
    152  CZ3      -43.1710  -28.6080   48.0790 C.ar  227  TRP227      0.0001
    153  CH2      -43.6170  -27.5800   48.8820 C.ar  227  TRP227      0.0015
    154  N        -41.4090  -29.6450   43.9470 N.am  228  GLY228     -0.1940
    155  CA       -42.1960  -30.7790   44.3440 C.3   228  GLY228      0.2014
    156  C        -41.2840  -31.7250   45.0660 C.2   228  GLY228      0.2639
    157  O        -40.0580  -31.6910   44.8970 O.2   228  GLY228     -0.2714
    158  N        -41.9260  -32.4930   45.9190 N.am  229  GLU229     -0.1963
    159  CA       -41.3300  -33.6120   46.6190 C.3   229  GLU229      0.1733
    160  C        -41.4670  -34.8660   45.7320 C.2   229  GLU229      0.2617
    161  O        -42.3820  -35.7180   45.7660 O.2   229  GLU229     -0.2715
    162  CB       -42.0290  -33.7260   47.9890 C.3   229  GLU229      0.0429
    163  CG       -41.6240  -32.5880   48.9240 C.3   229  GLU229      0.1163
    164  CD       -42.6300  -32.1300   49.9850 C.2   229  GLU229      0.3649
    165  OE1      -43.7780  -31.8430   49.6340 O.co2 229  GLU229     -0.2457
    166  OE2      -42.2520  -32.0300   51.1620 O.co2 229  GLU229     -0.2457
    167  N        -40.5100  -34.9000   44.8220 N.am  230  GLY230     -0.1940
    168  CA       -40.3890  -36.0220   43.9160 C.3   230  GLY230      0.2014
    169  C        -41.0370  -35.5910   42.6210 C.2   230  GLY230      0.2635
    170  O        -41.3180  -34.4050   42.4350 O.2   230  GLY230     -0.2714
    171  N        -41.3090  -36.5110   41.7100 N.am  231  CYS231     -0.2021
    172  CA       -42.0020  -36.1760   40.4890 C.3   231  CYS231      0.1398
    173  C        -43.2020  -37.0790   40.5400 C.3   231  CYS231      0.2045
    174  O        -42.9350  -38.2520   40.3660 O.3   231  CYS231     -0.2185
    175  CB       -41.0670  -36.5040   39.2970 C.3   231  CYS231      0.0930
    176  SG       -39.6050  -35.4430   39.2770 S.3   231  CYS231     -0.0802
    177  N        -47.8010  -30.8090   43.0160 N.3   238  GLY238     -0.1210
    178  CA       -46.7790  -30.0630   42.2960 C.3   238  GLY238      0.1956
    179  C        -46.8630  -28.6270   42.6840 C.2   238  GLY238      0.2612
    180  O        -47.9410  -28.0410   42.5890 O.2   238  GLY238     -0.2717
    181  N        -45.7980  -28.0040   43.1150 N.am  239  PHE239     -0.1962
    182  CA       -45.9060  -26.5960   43.4600 C.3   239  PHE239      0.1771
    183  C        -45.4850  -25.5850   42.4230 C.2   239  PHE239      0.2619
    184  O        -44.4920  -25.8740   41.7350 O.2   239  PHE239     -0.2715
    185  CB       -45.1510  -26.4100   44.7070 C.3   239  PHE239      0.0574
    186  CG       -46.0820  -26.8620   45.8020 C.ar  239  PHE239     -0.0200
    187  CD1      -47.0090  -25.9640   46.2910 C.ar  239  PHE239     -0.0042
    188  CD2      -45.9570  -28.1210   46.3620 C.ar  239  PHE239     -0.0042
    189  CE1      -47.8090  -26.3070   47.3610 C.ar  239  PHE239     -0.0003
    190  CE2      -46.7560  -28.4510   47.4360 C.ar  239  PHE239     -0.0003
    191  CZ       -47.6700  -27.5520   47.9360 C.ar  239  PHE239     -0.0000
    192  N        -46.2130  -24.4570   42.3210 N.am  240  TYR240     -0.1974
    193  CA       -46.1650  -23.3970   41.2760 C.3   240  TYR240      0.1639
    194  C        -46.2590  -21.9720   41.8320 C.2   240  TYR240      0.2290
    195  O        -47.0840  -21.6600   42.6950 O.2   240  TYR240     -0.2864
    196  CB       -47.3430  -23.4240   40.2900 C.3   240  TYR240      0.0560
    197  CG       -47.4230  -24.6870   39.4630 C.ar  240  TYR240     -0.0198
    198  CD1      -46.6630  -24.7930   38.3160 C.ar  240  TYR240     -0.0009
    199  CD2      -48.1580  -25.7710   39.9230 C.ar  240  TYR240     -0.0009
    200  CE1      -46.6320  -26.0010   37.6350 C.ar  240  TYR240      0.0417
    201  CE2      -48.1270  -26.9750   39.2420 C.ar  240  TYR240      0.0417
    202  CZ       -47.3630  -27.0930   38.0930 C.ar  240  TYR240      0.1957
    203  OH       -47.3150  -28.3030   37.3940 O.3   240  TYR240     -0.2866
@<TRIPOS>BOND
     1   124   123    2
     2   115   114    2
     3    96    95    2
     4   133   131    1
     5   121   122    1
     6   114   113    1
     7   123   122    1
     8    93    94    1
     9    95   101   am
    10    95    94    1
    11   102   101    1
    12   102   105    1
    13   102   103    1
    14   109   108    2
    15   131   132    1
    16   131   128    1
    17   122   125    1
    18   110   111    1
    19   110   107    1
    20    94    97    1
    21   106   103   am
    22   106   107    1
    23   108   107    1
    24   108   112   am
    25   103   104    2
    26   127   128    1
    27   111   176    1
    28   113   112    1
    29   113   116    1
    30   203   202    1
    31   200   202   ar
    32   200   198   ar
    33   125   126    1
    34   128   129    1
    35   116   117    1
    36   119   118   ar
    37    97    98    1
    38   202   201   ar
    39    45    44    1
    40   198   197   ar
    41   130   129    2
    42   129   134   am
    43   118   117    1
    44   118   120   ar
    45    44    43    1
    46    98    99   ar
    47    98   100   ar
    48   201   199   ar
    49   176   175    1
    50   175   172    1
    51   197   199   ar
    52   197   196    1
    53    10     9   ar
    54    10     8   ar
    55   134   135    1
    56   196   193    1
    57    43    42    1
    58   174   173    1
    59     9     7   ar
    60   172   173    1
    61   172   171    1
    62     8     6   ar
    63     3     4    2
    64     3     2    1
    65   135   136    1
    66   135   138    1
    67    42    41    1
    68   193   194    1
    69   193   192    1
    70   137   136    2
    71     7     6   ar
    72     6     5    1
    73     1     2    1
    74   136   140   am
    75   171   169   am
    76   184   183    2
    77   194   195    2
    78     2     5    1
    79    41    38    1
    80    38    39    1
    81    38    37    1
    82   138   139    1
    83   178   179    1
    84   178   177    1
    85   192   183   am
    86   183   182    1
    87   170   169    2
    88   140   141    1
    89    39    40    2
    90   180   179    2
    91   169   168    1
    92   179   181   am
    93   143   142    2
    94   181   182    1
    95   141   142    1
    96   141   144    1
    97   142   154   am
    98   182   185    1
    99    26    25    2
   100    11    12    1
   101   168   167    1
   102   154   155    1
   103    35    33   ar
   104    35    36   ar
   105    33    30   ar
   106   155   156    1
   107    15    12    1
   108    15    16    1
   109   144   145    1
   110   185   186    1
   111    25    24    1
   112   167   160   am
   113   157   156    2
   114    12    13    1
   115    27    24    1
   116    27    28    1
   117   156   158   am
   118    36    34   ar
   119    14    13    2
   120    30    28   ar
   121    30    32   ar
   122    18    16   ar
   123    18    20   ar
   124    16    17   ar
   125   145   146   ar
   126   145   147   ar
   127    24    23    1
   128    83    82    1
   129   160   161    2
   130   160   159    1
   131    28    29   ar
   132   186   187   ar
   133   186   188   ar
   134   146   148   ar
   135   158   159    1
   136   187   189   ar
   137    34    32   ar
   138   188   190   ar
   139    32    31   ar
   140    84    82    1
   141    20    21   ar
   142   159   162    1
   143   147   150   ar
   144   147   149   ar
   145    17    19   ar
   146    82    81    1
   147   150   152   ar
   148   148   149   ar
   149    80    79    2
   150    29    31   ar
   151    81    78    1
   152   189   191   ar
   153   190   191   ar
   154   149   151   ar
   155    21    19   ar
   156    21    22    1
   157   162   163    1
   158    79    78    1
   159   152   153   ar
   160    78    77    1
   161   151   153   ar
   162    50    51    1
   163    50    47    1
   164   163   164    1
   165    52    51   ar
   166    52    54   ar
   167    51    53   ar
   168    72    71    2
   169    77    71   am
   170   165   164   ar
   171    47    46    1
   172    47    48    1
   173    54    55   ar
   174   164   166   ar
   175    71    70    1
   176    53    55   ar
   177    53    56   ar
   178    55    57   ar
   179    56    58   ar
   180    49    48    2
   181    57    59   ar
   182    58    59   ar
   183    70    73    1
   184    70    69    1
   185    92    90    1
   186    75    74    2
   187    91    89    1
   188    73    74    1
   189    74    76   am
   190    69    62   am
   191    89    90    1
   192    89    86    1
   193    63    62    2
   194    62    61    1
   195    88    87    2
   196    60    61    1
   197    87    86    1
   198    86    85    1
   199    61    64    1
   200    64    65    1
   201    67    66   ar
   202    65    66    1
   203    66    68   ar
