@<TRIPOS>MOLECULE
tmp/1etzB00.pdb
 128 127 0 0 0
SMALL
GASTEIGER

@<TRIPOS>ATOM
      1  N          9.8230   33.6510  -19.6720 N.3    52  ASP52      -0.1239
      2  CA         9.3540   33.2310  -20.9900 C.3    52  ASP52       0.1674
      3  C         10.5710   32.9670  -21.8620 C.2    52  ASP52       0.2266
      4  O         11.5480   33.7180  -21.8210 O.2    52  ASP52      -0.2867
      5  CB         8.5090   34.3320  -21.6620 C.3    52  ASP52       0.1410
      6  CG         7.0470   34.3330  -21.2150 C.2    52  ASP52       0.3668
      7  OD1        6.6080   33.3490  -20.5930 O.co2  52  ASP52      -0.2456
      8  OD2        6.3240   35.3210  -21.4870 O.co2  52  ASP52      -0.2456
      9  N         11.2460   31.6090  -25.9270 N.3    54  TRP54      -0.1227
     10  CA        10.6660   31.2480  -27.2100 C.3    54  TRP54       0.1737
     11  C         11.5650   30.3940  -28.1130 C.2    54  TRP54       0.2595
     12  O         12.6690   30.0200  -27.7270 O.2    54  TRP54      -0.2718
     13  CB        10.2150   32.5240  -27.9180 C.3    54  TRP54       0.0564
     14  CG         9.2380   33.3550  -27.0900 C.ar   54  TRP54       0.0003
     15  CD1        9.5530   34.2340  -26.0940 C.ar   54  TRP54       0.0946
     16  CD2        7.7990   33.3630  -27.1820 C.ar   54  TRP54       0.0152
     17  NE1        8.4110   34.7830  -25.5610 N.ar   54  TRP54      -0.2442
     18  CE2        7.3220   34.2690  -26.2110 C.ar   54  TRP54       0.0810
     19  CE3        6.8700   32.6950  -27.9920 C.ar   54  TRP54       0.0012
     20  CZ2        5.9570   34.5240  -26.0270 C.ar   54  TRP54       0.0191
     21  CZ3        5.5160   32.9530  -27.8040 C.ar   54  TRP54       0.0001
     22  CH2        5.0770   33.8600  -26.8280 C.ar   54  TRP54       0.0015
     23  N         11.0610   30.0490  -29.2990 N.am   55  TRP55      -0.1962
     24  CA        11.7970   29.2340  -30.2590 C.3    55  TRP55       0.1771
     25  C         13.0960   29.8990  -30.7250 C.2    55  TRP55       0.2619
     26  O         14.1150   29.2210  -30.9310 O.2    55  TRP55      -0.2715
     27  CB        10.9120   28.9130  -31.4720 C.3    55  TRP55       0.0590
     28  CG        10.7800   30.0190  -32.4920 C.ar   55  TRP55       0.0006
     29  CD1       11.4290   30.1030  -33.6900 C.ar   55  TRP55       0.0946
     30  CD2        9.9390   31.1840  -32.4120 C.ar   55  TRP55       0.0152
     31  NE1       11.0410   31.2400  -34.3640 N.ar   55  TRP55      -0.2442
     32  CE2       10.1280   31.9190  -33.6000 C.ar   55  TRP55       0.0810
     33  CE3        9.0410   31.6720  -31.4520 C.ar   55  TRP55       0.0012
     34  CZ2        9.4560   33.1120  -33.8560 C.ar   55  TRP55       0.0191
     35  CZ3        8.3660   32.8650  -31.7080 C.ar   55  TRP55       0.0001
     36  CH2        8.5790   33.5670  -32.9020 C.ar   55  TRP55       0.0015
     37  N         13.0590   31.2230  -30.8840 N.am   56  ASN56      -0.1972
     38  CA        14.2190   31.9960  -31.3350 C.3    56  ASN56       0.1688
     39  C         15.1770   32.3490  -30.2030 C.2    56  ASN56       0.2292
     40  O         16.0600   33.1930  -30.3580 O.2    56  ASN56      -0.2864
     41  CB        13.7670   33.2680  -32.0620 C.3    56  ASN56       0.1181
     42  CG        12.7200   34.0210  -31.2990 C.2    56  ASN56       0.2629
     43  OD1       12.7290   34.0330  -30.0830 O.2    56  ASN56      -0.2716
     44  ND2       11.7990   34.6350  -32.0070 N.am   56  ASN56      -0.0877
     45  N         14.5730   33.9450  -27.4170 N.3    58  LYS58      -0.1245
     46  CA        14.3410   35.2390  -26.7830 C.3    58  LYS58       0.1561
     47  C         13.7820   34.9700  -25.3660 C.2    58  LYS58       0.2260
     48  O         12.6990   34.3990  -25.2230 O.2    58  LYS58      -0.2867
     49  CB        13.3280   36.0560  -27.5890 C.3    58  LYS58       0.0271
     50  CG        13.7990   36.5050  -28.9550 C.3    58  LYS58       0.0035
     51  CD        14.6540   37.7600  -28.9090 C.3    58  LYS58       0.0206
     52  CE        13.8450   38.9720  -28.4580 C.3    58  LYS58       0.1093
     53  NZ        12.6130   39.2020  -29.2910 N.3    58  LYS58      -0.1314
     54  N         12.4980   36.2920  -21.5000 N.3    60  TYR60      -0.1241
     55  CA        11.8330   37.4100  -20.8140 C.3    60  TYR60       0.1605
     56  C         11.6880   37.0610  -19.3360 C.2    60  TYR60       0.2264
     57  O         11.1750   35.9910  -19.0130 O.2    60  TYR60      -0.2867
     58  CB        10.4610   37.6740  -21.4380 C.3    60  TYR60       0.0534
     59  CG        10.5320   38.1560  -22.8660 C.ar   60  TYR60      -0.0201
     60  CD1       10.6960   37.2620  -23.9290 C.ar   60  TYR60      -0.0009
     61  CD2       10.4620   39.5080  -23.1580 C.ar   60  TYR60      -0.0009
     62  CE1       10.7930   37.7170  -25.2510 C.ar   60  TYR60       0.0417
     63  CE2       10.5540   39.9680  -24.4690 C.ar   60  TYR60       0.0417
     64  CZ        10.7210   39.0690  -25.5050 C.ar   60  TYR60       0.1957
     65  OH        10.8220   39.5560  -26.7800 O.3    60  TYR60      -0.2866
     66  N          3.4420   28.6100  -24.5580 N.3   100  ARG100     -0.1245
     67  CA         3.2500   29.9670  -25.0400 C.3   100  ARG100      0.1563
     68  C          3.0930   29.8790  -26.5420 C.2   100  ARG100      0.2260
     69  O          3.8140   29.1480  -27.2070 O.2   100  ARG100     -0.2867
     70  CB         4.4520   30.8250  -24.6850 C.3   100  ARG100      0.0307
     71  CG         4.7640   30.8410  -23.2060 C.3   100  ARG100      0.0489
     72  CD         3.5680   31.2970  -22.4120 C.3   100  ARG100      0.2205
     73  NE         2.7900   32.2730  -23.1600 N.pl3 100  ARG100     -0.0865
     74  CZ         3.0850   33.5620  -23.2490 C.cat 100  ARG100      0.5346
     75  NH1        4.1530   34.0520  -22.6190 N.pl3 100  ARG100      0.1354
     76  NH2        2.3310   34.3540  -24.0030 N.pl3 100  ARG100      0.1354
     77  N          2.3890   32.2240  -30.1920 N.3   102  PHE102     -0.1241
     78  CA         2.4150   33.5320  -30.8350 C.3   102  PHE102      0.1605
     79  C          1.7380   33.5100  -32.2110 C.2   102  PHE102      0.2264
     80  O          2.0480   32.6790  -33.0600 O.2   102  PHE102     -0.2867
     81  CB         3.8640   34.0380  -30.9580 C.3   102  PHE102      0.0534
     82  CG         4.0290   35.2330  -31.8790 C.ar  102  PHE102     -0.0203
     83  CD1        3.5200   36.4760  -31.5290 C.ar  102  PHE102     -0.0042
     84  CD2        4.6970   35.1010  -33.1000 C.ar  102  PHE102     -0.0042
     85  CE1        3.6720   37.5650  -32.3770 C.ar  102  PHE102     -0.0003
     86  CE2        4.8540   36.1820  -33.9570 C.ar  102  PHE102     -0.0003
     87  CZ         4.3430   37.4140  -33.5970 C.ar  102  PHE102     -0.0000
     88  N          0.4750   36.2100  -35.4530 N.3   104  TYR104     -0.1241
     89  CA         0.5550   37.5390  -36.0470 C.3   104  TYR104      0.1605
     90  C         -0.5350   37.6230  -37.1010 C.2   104  TYR104      0.2264
     91  O         -0.2880   37.3500  -38.2730 O.2   104  TYR104     -0.2867
     92  CB         1.9170   37.7370  -36.6970 C.3   104  TYR104      0.0534
     93  CG         2.1560   39.1450  -37.1430 C.ar  104  TYR104     -0.0201
     94  CD1        2.7790   40.0620  -36.2990 C.ar  104  TYR104     -0.0009
     95  CD2        1.7670   39.5680  -38.4100 C.ar  104  TYR104     -0.0009
     96  CE1        3.0090   41.3710  -36.7050 C.ar  104  TYR104      0.0417
     97  CE2        1.9910   40.8720  -38.8340 C.ar  104  TYR104      0.0417
     98  CZ         2.6130   41.7740  -37.9780 C.ar  104  TYR104      0.1957
     99  OH         2.8290   43.0770  -38.3960 O.3   104  TYR104     -0.2866
    100  N         -0.8840   41.1980  -33.2110 N.3   109  SER109     -0.1217
    101  CA        -0.1860   40.1240  -32.5240 C.3   109  SER109      0.1889
    102  C         -1.0860   39.5640  -31.4270 C.2   109  SER109      0.2288
    103  O         -1.9700   40.2620  -30.9200 O.2   109  SER109     -0.2866
    104  CB         1.1290   40.6230  -31.9200 C.3   109  SER109      0.2089
    105  OG         2.1420   40.7670  -32.9000 O.3   109  SER109     -0.2183
    106  N         -0.7780   36.6440  -28.0220 N.3   111  TYR111     -0.1241
    107  CA         0.1020   35.8090  -27.2100 C.3   111  TYR111      0.1605
    108  C         -0.8090   35.0710  -26.2410 C.2   111  TYR111      0.2264
    109  O         -1.6560   35.6930  -25.5920 O.2   111  TYR111     -0.2867
    110  CB         1.1170   36.6680  -26.4580 C.3   111  TYR111      0.0534
    111  CG         1.9640   37.5650  -27.3540 C.ar  111  TYR111     -0.0201
    112  CD1        3.1640   37.0990  -27.9120 C.ar  111  TYR111     -0.0009
    113  CD2        1.5740   38.8810  -27.6310 C.ar  111  TYR111     -0.0009
    114  CE1        3.9470   37.9140  -28.7150 C.ar  111  TYR111      0.0417
    115  CE2        2.3520   39.7060  -28.4370 C.ar  111  TYR111      0.0417
    116  CZ         3.5370   39.2160  -28.9730 C.ar  111  TYR111      0.1957
    117  OH         4.3300   40.0330  -29.7420 O.3   111  TYR111     -0.2866
    118  N         -1.5380   31.6100  -23.3280 N.3   113  PHE113     -0.1241
    119  CA        -1.0850   30.7190  -22.2540 C.3   113  PHE113      0.1605
    120  C         -2.1650   29.6290  -22.3250 C.2   113  PHE113      0.2264
    121  O         -3.1150   29.6510  -21.5470 O.2   113  PHE113     -0.2867
    122  CB        -1.1700   31.3980  -20.8780 C.3   113  PHE113      0.0534
    123  CG        -0.0380   32.3450  -20.5670 C.ar  113  PHE113     -0.0203
    124  CD1       -0.0960   33.6790  -20.9550 C.ar  113  PHE113     -0.0042
    125  CD2        1.0460   31.9270  -19.8010 C.ar  113  PHE113     -0.0042
    126  CE1        0.8970   34.5780  -20.5800 C.ar  113  PHE113     -0.0003
    127  CE2        2.0480   32.8300  -19.4210 C.ar  113  PHE113     -0.0003
    128  CZ         1.9680   34.1530  -19.8100 C.ar  113  PHE113     -0.0000
@<TRIPOS>BOND
     1    97    95   ar
     2    97    98   ar
     3    95    93   ar
     4    99    98    1
     5    91    90    2
     6    98    96   ar
     7    93    92    1
     8    93    94   ar
     9    90    89    1
    10    96    94   ar
    11    92    89    1
    12    89    88    1
    13    31    29   ar
    14    31    32   ar
    15    86    87   ar
    16    86    84   ar
    17    34    32   ar
    18    34    36   ar
    19    29    28   ar
    20    32    30   ar
    21    87    85   ar
    22   100   101    1
    23    84    82   ar
    24    80    79    2
    25    36    35   ar
    26   105   104    1
    27   101   104    1
    28   101   102    1
    29    28    30   ar
    30    28    27    1
    31    30    33   ar
    32    85    83   ar
    33    79    78    1
    34    41    38    1
    35    41    42    1
    36    44    42   am
    37    82    83   ar
    38    82    81    1
    39    35    33   ar
    40    27    24    1
    41   102   103    2
    42    38    37    1
    43    38    39    1
    44    42    43    2
    45    81    78    1
    46    26    25    2
    47    37    25   am
    48    78    77    1
    49    25    24    1
    50    40    39    2
    51    24    23    1
    52   117   116    1
    53    23    11   am
    54    53    52    1
    55   116   114   ar
    56   116   115   ar
    57    50    51    1
    58    50    49    1
    59    51    52    1
    60   114   112   ar
    61   115   113   ar
    62    11    12    2
    63    11    10    1
    64   106   107    1
    65    19    21   ar
    66    19    16   ar
    67    13    10    1
    68    13    14    1
    69   112   111   ar
    70    21    22   ar
    71   113   111   ar
    72    49    46    1
    73    45    46    1
    74   111   110    1
    75    10     9    1
    76   107   110    1
    77   107   108    1
    78    69    68    2
    79    16    14   ar
    80    16    18   ar
    81    14    15   ar
    82    22    20   ar
    83    46    47    1
    84    65    64    1
    85    68    67    1
    86   108   109    2
    87    18    20   ar
    88    18    17   ar
    89    15    17   ar
    90    64    62   ar
    91    64    63   ar
    92    47    48    2
    93    62    60   ar
    94    67    70    1
    95    67    66    1
    96    70    71    1
    97    63    61   ar
    98    76    74    1
    99    60    59   ar
   100   118   119    1
   101    74    73    2
   102    74    75    1
   103    71    72    1
   104    73    72    1
   105    61    59   ar
   106    59    58    1
   107   120   119    1
   108   120   121    2
   109   119   122    1
   110     3     4    2
   111     3     2    1
   112     5     6    1
   113     5     2    1
   114    54    55    1
   115     8     6   ar
   116    58    55    1
   117     6     7   ar
   118     2     1    1
   119   124   126   ar
   120   124   123   ar
   121   122   123    1
   122    55    56    1
   123   126   128   ar
   124   123   125   ar
   125   128   127   ar
   126   125   127   ar
   127    56    57    2
