@<TRIPOS>MOLECULE
tmp/1eu1A01.pdb
 113 106 0 0 0
SMALL
GASTEIGER

@<TRIPOS>ATOM
      1  N         10.0480   36.3860   13.4010 N.3   387  ARG387     -0.1245
      2  CA         9.7280   36.0750   12.0090 C.3   387  ARG387      0.1563
      3  C          9.5490   37.3590   11.1810 C.2   387  ARG387      0.2260
      4  O          9.1610   37.2690    9.9980 O.2   387  ARG387     -0.2867
      5  CB         8.4830   35.1780   11.8950 C.3   387  ARG387      0.0307
      6  CG         8.5550   33.8500   12.6220 C.3   387  ARG387      0.0489
      7  CD         9.2470   32.7220   11.8940 C.3   387  ARG387      0.2205
      8  NE        10.6080   32.9980   11.4540 N.pl3 387  ARG387     -0.0865
      9  CZ        11.6620   33.0870   12.2640 C.cat 387  ARG387      0.5346
     10  NH1       12.8490   33.3520   11.7240 N.pl3 387  ARG387      0.1354
     11  NH2       11.5380   32.9320   13.5790 N.pl3 387  ARG387      0.1354
     12  N         11.4530   37.1140    7.7160 N.3   390  ASP390     -0.1239
     13  CA        10.7920   36.0750    6.9110 C.3   390  ASP390      0.1674
     14  C          9.4680   36.6100    6.3480 C.2   390  ASP390      0.2266
     15  O          9.1370   36.3610    5.1680 O.2   390  ASP390     -0.2867
     16  CB        10.5850   34.7840    7.7040 C.3   390  ASP390      0.1410
     17  CG        11.8280   33.9690    7.9880 C.2   390  ASP390      0.3668
     18  OD1       12.8410   34.0920    7.2640 O.co2 390  ASP390     -0.2456
     19  OD2       11.8210   33.1390    8.9300 O.co2 390  ASP390     -0.2456
     20  N          3.3120   29.5230    6.9550 N.3   399  PHE399     -0.1227
     21  CA         4.2150   29.2270    8.0570 C.3   399  PHE399      0.1736
     22  C          3.4600   28.4160    9.1210 C.2   399  PHE399      0.2595
     23  O          2.2390   28.5700    9.2650 O.2   399  PHE399     -0.2718
     24  CB         4.8810   30.4450    8.6880 C.3   399  PHE399      0.0547
     25  CG         4.0180   31.3970    9.4620 C.ar  399  PHE399     -0.0202
     26  CD1        3.8960   31.3320   10.8440 C.ar  399  PHE399     -0.0042
     27  CD2        3.2920   32.3710    8.7900 C.ar  399  PHE399     -0.0042
     28  CE1        3.0930   32.2230   11.5400 C.ar  399  PHE399     -0.0003
     29  CE2        2.4790   33.2540    9.4700 C.ar  399  PHE399     -0.0003
     30  CZ         2.3790   33.1890   10.8510 C.ar  399  PHE399     -0.0000
     31  N          4.1750   27.5330    9.8150 N.am  400  GLN400     -0.1979
     32  CA         3.5890   26.7490   10.9010 C.3   400  GLN400      0.1601
     33  C          3.9640   27.3430   12.2540 C.2   400  GLN400      0.2287
     34  O          5.0800   27.8660   12.4190 O.2   400  GLN400     -0.2864
     35  CB         4.2070   25.3340   10.9420 C.3   400  GLN400      0.0394
     36  CG         3.6850   24.3640    9.9090 C.3   400  GLN400      0.0908
     37  CD         2.1920   24.1290   10.0870 C.2   400  GLN400      0.2608
     38  OE1        1.7390   23.6530   11.1290 O.2   400  GLN400     -0.2717
     39  NE2        1.4620   24.4940    9.0460 N.am  400  GLN400     -0.0878
     40  N          1.6220   34.7910    5.8800 N.3   408  TYR408     -0.1241
     41  CA         2.2130   36.0850    6.2520 C.3   408  TYR408      0.1605
     42  C          1.4560   37.2450    5.6240 C.2   408  TYR408      0.2264
     43  O          1.1420   37.2360    4.4200 O.2   408  TYR408     -0.2867
     44  CB         3.6820   36.1290    5.7930 C.3   408  TYR408      0.0534
     45  CG         4.6770   35.3330    6.5980 C.ar  408  TYR408     -0.0201
     46  CD1        5.4690   34.3260    6.0540 C.ar  408  TYR408     -0.0009
     47  CD2        4.8600   35.5810    7.9620 C.ar  408  TYR408     -0.0009
     48  CE1        6.3870   33.6080    6.8070 C.ar  408  TYR408      0.0417
     49  CE2        5.7610   34.8740    8.7340 C.ar  408  TYR408      0.0417
     50  CZ         6.5280   33.8820    8.1540 C.ar  408  TYR408      0.1957
     51  OH         7.4180   33.1980    8.9600 O.3   408  TYR408     -0.2866
     52  N         21.3070   40.2260    5.8900 N.3   430  ARG430     -0.1245
     53  CA        20.0550   39.7240    5.3070 C.3   430  ARG430      0.1563
     54  C         18.9350   40.7320    5.5850 C.2   430  ARG430      0.2260
     55  O         18.1280   41.0690    4.7030 O.2   430  ARG430     -0.2867
     56  CB        19.6790   38.3580    5.8880 C.3   430  ARG430      0.0307
     57  CG        18.4000   37.7270    5.3460 C.3   430  ARG430      0.0489
     58  CD        17.9300   36.5050    6.1270 C.3   430  ARG430      0.2205
     59  NE        16.8890   35.7190    5.4460 N.pl3 430  ARG430     -0.0865
     60  CZ        15.7550   35.2730    5.9690 C.cat 430  ARG430      0.5346
     61  NH1       15.3950   35.5250    7.2280 N.pl3 430  ARG430      0.1354
     62  NH2       14.9090   34.5400    5.2320 N.pl3 430  ARG430      0.1354
     63  N         11.2950   18.7750   13.5920 N.3   600  ASP600     -0.1239
     64  CA        12.1880   19.5690   14.4160 C.3   600  ASP600      0.1674
     65  C         11.7080   19.7840   15.8450 C.2   600  ASP600      0.2266
     66  O         12.3880   20.4790   16.6140 O.2   600  ASP600     -0.2867
     67  CB        12.5970   20.8570   13.7100 C.3   600  ASP600      0.1410
     68  CG        11.5120   21.8200   13.2920 C.2   600  ASP600      0.3668
     69  OD1       10.3250   21.6360   13.6250 O.co2 600  ASP600     -0.2456
     70  OD2       11.8420   22.8070   12.5900 O.co2 600  ASP600     -0.2456
     71  N         19.3620   33.7380   11.0400 N.3   728  ASP728     -0.1225
     72  CA        17.9540   34.1070   11.2460 C.3   728  ASP728      0.1805
     73  C         17.0130   32.9770   10.8440 C.2   728  ASP728      0.2598
     74  O         16.5450   32.9060    9.6950 O.2   728  ASP728     -0.2718
     75  CB        17.6150   35.3840   10.4520 C.3   728  ASP728      0.1424
     76  CG        16.2240   35.9480   10.6760 C.2   728  ASP728      0.3668
     77  OD1       15.5330   35.5490   11.6490 O.co2 728  ASP728     -0.2456
     78  OD2       15.7590   36.8120    9.8690 O.co2 728  ASP728     -0.2456
     79  N         16.7510   32.0260   11.7430 N.am  729  VAL729     -0.1966
     80  CA        15.8700   30.8820   11.5160 C.3   729  VAL729      0.1727
     81  C         15.0590   30.5950   12.7880 C.2   729  VAL729      0.2616
     82  O         15.4840   30.9750   13.8900 O.2   729  VAL729     -0.2715
     83  CB        16.5860   29.5890   11.0690 C.3   729  VAL729      0.0290
     84  CG1       17.4650   29.7370    9.8310 C.3   729  VAL729      0.0023
     85  CG2       17.4450   29.0150   12.1940 C.3   729  VAL729      0.0023
     86  N         13.9260   29.8990   12.6820 N.am  730  GLY730     -0.1955
     87  CA        13.1370   29.5540   13.8610 C.3   730  GLY730      0.1869
     88  C         13.7500   28.4210   14.6770 C.2   730  GLY730      0.2309
     89  O         14.4110   27.5110   14.1540 O.2   730  GLY730     -0.2863
     90  N         12.1820   25.9560   15.9310 N.3   732  SER732     -0.1202
     91  CA        11.4690   24.8460   15.3370 C.3   732  SER732      0.2020
     92  C         10.0830   25.3610   14.9140 C.2   732  SER732      0.2618
     93  O          9.7340   26.5240   15.1840 O.2   732  SER732     -0.2717
     94  CB        11.3040   23.6750   16.3030 C.3   732  SER732      0.2103
     95  OG        10.2310   23.8790   17.2270 O.3   732  SER732     -0.2182
     96  N          9.2520   24.4750   14.3490 N.am  733  LYS733     -0.1979
     97  CA         7.8750   24.8090   13.9950 C.3   733  LYS733      0.1596
     98  C          6.9780   24.9690   15.2280 C.2   733  LYS733      0.2287
     99  O          5.8900   25.5790   15.1330 O.2   733  LYS733     -0.2864
    100  CB         7.3040   23.7490   13.0350 C.3   733  LYS733      0.0298
    101  CG         7.9030   23.8080   11.6340 C.3   733  LYS733      0.0038
    102  CD         7.3470   22.7280   10.7130 C.3   733  LYS733      0.0206
    103  CE         8.2990   22.4950    9.5460 C.3   733  LYS733      0.1093
    104  NZ         9.5990   21.9550   10.0560 N.3   733  LYS733     -0.1314
    105  N          8.8770   28.8580   16.8970 N.3   736  GLN736     -0.1245
    106  CA         9.3540   29.8570   15.9290 C.3   736  GLN736      0.1566
    107  C         10.1450   30.9700   16.6190 C.2   736  GLN736      0.2260
    108  O         10.0920   32.1480   16.2230 O.2   736  GLN736     -0.2867
    109  CB         8.2140   30.3890   15.0510 C.3   736  GLN736      0.0367
    110  CG         7.5960   29.3800   14.0940 C.3   736  GLN736      0.0905
    111  CD         8.4790   29.0070   12.9170 C.2   736  GLN736      0.2608
    112  OE1        9.6410   29.4170   12.8090 O.2   736  GLN736     -0.2717
    113  NE2        7.9150   28.2120   12.0090 N.am  736  GLN736     -0.0878
@<TRIPOS>BOND
     1    43    42    2
     2    55    54    2
     3    15    14    2
     4    62    60    1
     5    53    54    1
     6    53    56    1
     7    53    52    1
     8    57    56    1
     9    57    58    1
    10    59    60    2
    11    59    58    1
    12    42    41    1
    13    44    41    1
    14    44    45    1
    15    40    41    1
    16    60    61    1
    17    46    45   ar
    18    46    48   ar
    19    14    13    1
    20    45    47   ar
    21    48    50   ar
    22    13    16    1
    23    13    12    1
    24    20    21    1
    25    18    17   ar
    26    16    17    1
    27    47    49   ar
    28    17    19   ar
    29    21    24    1
    30    21    22    1
    31    50    49   ar
    32    50    51    1
    33    24    25    1
    34    27    25   ar
    35    27    29   ar
    36    39    37   am
    37    22    23    2
    38    22    31   am
    39    25    26   ar
    40    29    30   ar
    41   103   104    1
    42   103   102    1
    43    74    73    2
    44    31    32    1
    45    84    83    1
    46    78    76   ar
    47    36    37    1
    48    36    35    1
    49     4     3    2
    50    37    38    2
    51    75    76    1
    52    75    72    1
    53    76    77   ar
    54   102   101    1
    55    26    28   ar
    56    73    72    1
    57    73    79   am
    58    30    28   ar
    59    32    35    1
    60    32    33    1
    61    71    72    1
    62    83    80    1
    63    83    85    1
    64     3     2    1
    65     8     7    1
    66     8     9    2
    67    80    79    1
    68    80    81    1
    69   101   100    1
    70    10     9    1
    71     7     6    1
    72     5     2    1
    73     5     6    1
    74   113   111   am
    75     2     1    1
    76    33    34    2
    77     9    11    1
    78    70    68   ar
    79    86    81   am
    80    86    87    1
    81    81    82    2
    82   112   111    2
    83   111   110    1
    84   100    97    1
    85    68    69   ar
    86    68    67    1
    87    63    64    1
    88    67    64    1
    89    87    88    1
    90    97    96    1
    91    97    98    1
    92   110   109    1
    93    89    88    2
    94    96    92   am
    95    64    65    1
    96    92    93    2
    97    92    91    1
    98   109   106    1
    99    99    98    2
   100    91    90    1
   101    91    94    1
   102    65    66    2
   103   106   107    1
   104   106   105    1
   105   108   107    2
   106    94    95    1
