@<TRIPOS>MOLECULE
tmp/1eu1A04.pdb
 104 103 0 0 0
SMALL
GASTEIGER

@<TRIPOS>ATOM
      1  N          8.7660   45.6310   18.9700 N.3   111  TYR111     -0.1241
      2  CA         9.3940   45.0370   20.1470 C.3   111  TYR111      0.1605
      3  C         10.5160   45.9030   20.7330 C.2   111  TYR111      0.2264
      4  O         11.3550   46.4240   19.9790 O.2   111  TYR111     -0.2867
      5  CB         9.9190   43.5740   20.0170 C.3   111  TYR111      0.0534
      6  CG        10.1080   42.9910   21.4150 C.ar  111  TYR111     -0.0201
      7  CD1        9.0340   42.4660   22.1250 C.ar  111  TYR111     -0.0009
      8  CD2       11.3510   43.0060   22.0490 C.ar  111  TYR111     -0.0009
      9  CE1        9.1890   41.9810   23.4120 C.ar  111  TYR111      0.0417
     10  CE2       11.5100   42.5190   23.3340 C.ar  111  TYR111      0.0417
     11  CZ        10.4270   42.0090   24.0130 C.ar  111  TYR111      0.1957
     12  OH        10.5780   41.5390   25.3090 O.3   111  TYR111     -0.2866
     13  N         12.5970   47.1990   24.9170 N.3   113  TRP113     -0.1241
     14  CA        12.5730   47.4730   26.3530 C.3   113  TRP113      0.1605
     15  C         12.0970   48.8380   26.7910 C.2   113  TRP113      0.2264
     16  O         11.7130   48.9830   27.9890 O.2   113  TRP113     -0.2867
     17  CB        13.9420   47.1280   27.0290 C.3   113  TRP113      0.0550
     18  CG        13.8790   45.7250   27.5730 C.ar  113  TRP113      0.0003
     19  CD1       13.7570   44.5840   26.8350 C.ar  113  TRP113      0.0946
     20  CD2       13.8300   45.3260   28.9540 C.ar  113  TRP113      0.0152
     21  NE1       13.6480   43.4870   27.6640 N.ar  113  TRP113     -0.2442
     22  CE2       13.6790   43.9290   28.9650 C.ar  113  TRP113      0.0810
     23  CE3       13.8780   45.9980   30.1830 C.ar  113  TRP113      0.0012
     24  CZ2       13.5970   43.1940   30.1560 C.ar  113  TRP113      0.0191
     25  CZ3       13.7970   45.2650   31.3560 C.ar  113  TRP113      0.0001
     26  CH2       13.6490   43.8810   31.3320 C.ar  113  TRP113      0.0015
     27  N          8.3830   37.0650   22.6160 N.3   142  ASP142     -0.1239
     28  CA         9.4790   38.0210   22.8390 C.3   142  ASP142      0.1674
     29  C         10.8020   37.3820   22.3960 C.2   142  ASP142      0.2266
     30  O         10.7780   36.2790   21.8140 O.2   142  ASP142     -0.2867
     31  CB         9.4610   38.4440   24.3210 C.3   142  ASP142      0.1410
     32  CG         9.5400   37.2750   25.2840 C.2   142  ASP142      0.3668
     33  OD1        8.6990   37.1660   26.2220 O.co2 142  ASP142     -0.2456
     34  OD2       10.4800   36.4430   25.1300 O.co2 142  ASP142     -0.2456
     35  N         13.3170   36.8220   24.6010 N.3   144  SER144     -0.1217
     36  CA        13.8700   36.2660   25.8330 C.3   144  SER144      0.1889
     37  C         13.5990   34.7940   26.1110 C.2   144  SER144      0.2288
     38  O         14.5390   34.0610   26.5030 O.2   144  SER144     -0.2866
     39  CB        13.2720   37.0320   27.0440 C.3   144  SER144      0.2089
     40  OG        13.4780   38.4380   27.0050 O.3   144  SER144     -0.2183
     41  N          7.8520   33.4270   33.7760 N.3   162  TYR162     -0.1241
     42  CA         7.5460   34.7240   34.3730 C.3   162  TYR162      0.1605
     43  C          6.6770   34.6000   35.6240 C.2   162  TYR162      0.2264
     44  O          5.8430   35.4630   35.9220 O.2   162  TYR162     -0.2867
     45  CB         6.9180   35.6630   33.3150 C.3   162  TYR162      0.0534
     46  CG         7.7030   35.8350   32.0270 C.ar  162  TYR162     -0.0201
     47  CD1        9.0890   35.9900   32.0180 C.ar  162  TYR162     -0.0009
     48  CD2        7.0750   35.8690   30.7830 C.ar  162  TYR162     -0.0009
     49  CE1        9.8090   36.1480   30.8470 C.ar  162  TYR162      0.0417
     50  CE2        7.7790   36.0210   29.5960 C.ar  162  TYR162      0.0417
     51  CZ         9.1520   36.1750   29.6310 C.ar  162  TYR162      0.1957
     52  OH         9.8840   36.3360   28.4670 O.3   162  TYR162     -0.2866
     53  N         11.9140   44.9350   34.6160 N.3   193  TRP193     -0.1241
     54  CA        10.9410   45.4170   33.6150 C.3   193  TRP193      0.1605
     55  C         10.1700   46.6140   34.1880 C.2   193  TRP193      0.2264
     56  O          9.9870   47.6380   33.4990 O.2   193  TRP193     -0.2867
     57  CB        10.0200   44.3040   33.1400 C.3   193  TRP193      0.0550
     58  CG         8.9760   44.6950   32.1370 C.ar  193  TRP193      0.0003
     59  CD1        7.6370   44.8880   32.3820 C.ar  193  TRP193      0.0946
     60  CD2        9.1560   44.9520   30.7360 C.ar  193  TRP193      0.0152
     61  NE1        6.9750   45.2240   31.2210 N.ar  193  TRP193     -0.2442
     62  CE2        7.8950   45.2720   30.1960 C.ar  193  TRP193      0.0810
     63  CE3       10.2610   44.9140   29.8730 C.ar  193  TRP193      0.0012
     64  CZ2        7.7070   45.5520   28.8400 C.ar  193  TRP193      0.0191
     65  CZ3       10.0710   45.1810   28.5290 C.ar  193  TRP193      0.0001
     66  CH2        8.7950   45.4980   28.0240 C.ar  193  TRP193      0.0015
     67  N         18.2470   31.4100   30.3630 N.3   318  TRP318     -0.1241
     68  CA        17.5440   31.3720   29.0830 C.3   318  TRP318      0.1605
     69  C         18.3550   31.3670   27.8090 C.2   318  TRP318      0.2264
     70  O         17.8190   31.1750   26.6990 O.2   318  TRP318     -0.2867
     71  CB        16.4850   32.5030   29.0840 C.3   318  TRP318      0.0550
     72  CG        15.4790   32.4740   30.2000 C.ar  318  TRP318      0.0003
     73  CD1       14.9970   31.3960   30.9010 C.ar  318  TRP318      0.0946
     74  CD2       14.7670   33.6120   30.7240 C.ar  318  TRP318      0.0152
     75  NE1       14.0600   31.7860   31.8320 N.ar  318  TRP318     -0.2442
     76  CE2       13.8950   33.1470   31.7300 C.ar  318  TRP318      0.0810
     77  CE3       14.7810   34.9810   30.4080 C.ar  318  TRP318      0.0012
     78  CZ2       13.0580   34.0020   32.4440 C.ar  318  TRP318      0.0191
     79  CZ3       13.9510   35.8280   31.1230 C.ar  318  TRP318      0.0001
     80  CH2       13.1060   35.3310   32.1210 C.ar  318  TRP318      0.0015
     81  N         16.3320   36.5190   36.5820 N.3   356  TYR356     -0.1241
     82  CA        15.5940   37.5740   35.9020 C.3   356  TYR356      0.1605
     83  C         14.6580   38.3230   36.8470 C.2   356  TYR356      0.2264
     84  O         13.8360   37.7220   37.5530 O.2   356  TYR356     -0.2867
     85  CB        14.7440   37.0010   34.7280 C.3   356  TYR356      0.0534
     86  CG        13.7910   38.0100   34.1020 C.ar  356  TYR356     -0.0201
     87  CD1       14.2250   38.9630   33.1810 C.ar  356  TYR356     -0.0009
     88  CD2       12.4400   38.0430   34.4460 C.ar  356  TYR356     -0.0009
     89  CE1       13.3600   39.8920   32.6410 C.ar  356  TYR356      0.0417
     90  CE2       11.5640   38.9750   33.9020 C.ar  356  TYR356      0.0417
     91  CZ        12.0300   39.8990   32.9930 C.ar  356  TYR356      0.1957
     92  OH        11.1700   40.8490   32.4650 O.3   356  TYR356     -0.2866
     93  N          3.9820   45.7250   30.0950 N.3   378  GLY378     -0.1225
     94  CA         3.9650   45.0570   31.3250 C.3   378  GLY378      0.1811
     95  C          3.2790   45.5440   32.5510 C.2   378  GLY378      0.2280
     96  O          2.0600   45.8550   32.4790 O.2   378  GLY378     -0.2866
     97  N          9.5600   43.5630   40.4960 N.3   475  ASP475     -0.1239
     98  CA         8.7940   42.7880   39.5280 C.3   475  ASP475      0.1674
     99  C          7.9870   41.6570   40.1680 C.2   475  ASP475      0.2266
    100  O          6.8520   41.4010   39.7440 O.2   475  ASP475     -0.2867
    101  CB         9.7300   42.2720   38.4250 C.3   475  ASP475      0.1410
    102  CG        10.4240   43.3750   37.6450 C.2   475  ASP475      0.3668
    103  OD1       11.4060   43.9510   38.1790 O.co2 475  ASP475     -0.2456
    104  OD2        9.9610   43.6940   36.5190 O.co2 475  ASP475     -0.2456
@<TRIPOS>BOND
     1     1     2    1
     2     4     3    2
     3     5     2    1
     4     5     6    1
     5     2     3    1
     6     6     8   ar
     7     6     7   ar
     8    30    29    2
     9     8    10   ar
    10     7     9   ar
    11    29    28    1
    12    27    28    1
    13    28    31    1
    14    10    11   ar
    15     9    11   ar
    16    11    12    1
    17    31    32    1
    18    35    36    1
    19    13    14    1
    20    34    32   ar
    21    32    33   ar
    22    36    37    1
    23    36    39    1
    24    37    38    2
    25    14    15    1
    26    14    17    1
    27    70    69    2
    28    15    16    2
    29    19    18   ar
    30    19    21   ar
    31    40    39    1
    32    17    18    1
    33    18    20   ar
    34    21    22   ar
    35    69    68    1
    36    66    65   ar
    37    66    64   ar
    38    52    51    1
    39    65    63   ar
    40    64    62   ar
    41    20    22   ar
    42    20    23   ar
    43    22    24   ar
    44    68    71    1
    45    68    67    1
    46    71    72    1
    47    50    51   ar
    48    50    48   ar
    49    51    49   ar
    50    63    60   ar
    51    93    94    1
    52    24    26   ar
    53    23    25   ar
    54    62    60   ar
    55    62    61   ar
    56    72    74   ar
    57    72    73   ar
    58    77    74   ar
    59    77    79   ar
    60    74    76   ar
    61    60    58   ar
    62    48    46   ar
    63    49    47   ar
    64    73    75   ar
    65    79    80   ar
    66    61    59   ar
    67    94    95    1
    68    26    25   ar
    69    76    75   ar
    70    76    78   ar
    71    47    46   ar
    72    46    45    1
    73    80    78   ar
    74    58    59   ar
    75    58    57    1
    76    92    91    1
    77    96    95    2
    78    89    91   ar
    79    89    87   ar
    80    91    90   ar
    81    57    54    1
    82    87    86   ar
    83    45    42    1
    84    56    55    2
    85    54    55    1
    86    54    53    1
    87    41    42    1
    88    90    88   ar
    89    86    88   ar
    90    86    85    1
    91    42    43    1
    92    85    82    1
    93    43    44    2
    94    82    81    1
    95    82    83    1
    96   104   102   ar
    97    83    84    2
    98   102   103   ar
    99   102   101    1
   100   101    98    1
   101    98    99    1
   102    98    97    1
   103   100    99    2
