@<TRIPOS>MOLECULE
tmp/1eu1A02.pdb
 209 201 0 0 0
SMALL
GASTEIGER

@<TRIPOS>ATOM
      1  N          8.7660   45.6310   18.9700 N.3   111  TYR111     -0.1227
      2  CA         9.3940   45.0370   20.1470 C.3   111  TYR111      0.1736
      3  C         10.5160   45.9030   20.7330 C.2   111  TYR111      0.2596
      4  O         11.3550   46.4240   19.9790 O.2   111  TYR111     -0.2718
      5  CB         9.9190   43.5740   20.0170 C.3   111  TYR111      0.0548
      6  CG        10.1080   42.9910   21.4150 C.ar  111  TYR111     -0.0200
      7  CD1        9.0340   42.4660   22.1250 C.ar  111  TYR111     -0.0009
      8  CD2       11.3510   43.0060   22.0490 C.ar  111  TYR111     -0.0009
      9  CE1        9.1890   41.9810   23.4120 C.ar  111  TYR111      0.0417
     10  CE2       11.5100   42.5190   23.3340 C.ar  111  TYR111      0.0417
     11  CZ        10.4270   42.0090   24.0130 C.ar  111  TYR111      0.1957
     12  OH        10.5780   41.5390   25.3090 O.3   111  TYR111     -0.2866
     13  N         10.5760   45.9870   22.0690 N.am  112  GLY112     -0.1942
     14  CA        11.7050   46.6410   22.7230 C.3   112  GLY112      0.2014
     15  C         11.4820   46.9930   24.1810 C.2   112  GLY112      0.2639
     16  O         10.3560   47.1300   24.6680 O.2   112  GLY112     -0.2714
     17  N         12.5970   47.1990   24.9170 N.am  113  TRP113     -0.1959
     18  CA        12.5730   47.4730   26.3530 C.3   113  TRP113      0.1771
     19  C         12.0970   48.8380   26.7910 C.2   113  TRP113      0.2622
     20  O         11.7130   48.9830   27.9890 O.2   113  TRP113     -0.2715
     21  CB        13.9420   47.1280   27.0290 C.3   113  TRP113      0.0590
     22  CG        13.8790   45.7250   27.5730 C.ar  113  TRP113      0.0006
     23  CD1       13.7570   44.5840   26.8350 C.ar  113  TRP113      0.0946
     24  CD2       13.8300   45.3260   28.9540 C.ar  113  TRP113      0.0152
     25  NE1       13.6480   43.4870   27.6640 N.ar  113  TRP113     -0.2442
     26  CE2       13.6790   43.9290   28.9650 C.ar  113  TRP113      0.0810
     27  CE3       13.8780   45.9980   30.1830 C.ar  113  TRP113      0.0012
     28  CZ2       13.5970   43.1940   30.1560 C.ar  113  TRP113      0.0191
     29  CZ3       13.7970   45.2650   31.3560 C.ar  113  TRP113      0.0001
     30  CH2       13.6490   43.8810   31.3320 C.ar  113  TRP113      0.0015
     31  N         12.0450   49.8570   25.9260 N.am  114  LYS114     -0.1932
     32  CA        11.5000   51.1810   26.3060 C.3   114  LYS114      0.1812
     33  C         11.9760   51.5920   27.6950 C.2   114  LYS114      0.2332
     34  O         13.1910   51.4970   28.0220 O.2   114  LYS114     -0.2860
     35  CB         9.9720   51.1970   26.1050 C.2   114  LYS114     -0.0016
     36  CG         9.1090   50.1890   26.8470 C.2   114  LYS114     -0.0270
     37  CD         7.6150   50.3520   26.7000 C.3   114  LYS114      0.0462
     38  CE         6.8180   49.2510   27.3660 C.3   114  LYS114      0.1140
     39  NZ         6.8410   49.2960   28.8560 N.3   114  LYS114     -0.1310
     40  N         11.9300   38.0680   22.5910 N.3   143  TYR143     -0.1227
     41  CA        13.2490   37.5320   22.2410 C.3   143  TYR143      0.1736
     42  C         13.9070   36.7790   23.4030 C.2   143  TYR143      0.2596
     43  O         14.9630   36.1130   23.2360 O.2   143  TYR143     -0.2718
     44  CB        14.1790   38.6650   21.7080 C.3   143  TYR143      0.0548
     45  CG        13.9700   39.0210   20.2440 C.ar  143  TYR143     -0.0200
     46  CD1       12.8830   39.7980   19.8290 C.ar  143  TYR143     -0.0009
     47  CD2       14.8480   38.6050   19.2430 C.ar  143  TYR143     -0.0009
     48  CE1       12.6650   40.1040   18.4930 C.ar  143  TYR143      0.0417
     49  CE2       14.6420   38.8990   17.9010 C.ar  143  TYR143      0.0417
     50  CZ        13.5470   39.6560   17.5330 C.ar  143  TYR143      0.1957
     51  OH        13.3020   39.9700   16.1950 O.3   143  TYR143     -0.2866
     52  N         13.3170   36.8220   24.6010 N.am  144  SER144     -0.1952
     53  CA        13.8700   36.2660   25.8330 C.3   144  SER144      0.1924
     54  C         13.5990   34.7940   26.1110 C.2   144  SER144      0.2314
     55  O         14.5390   34.0610   26.5030 O.2   144  SER144     -0.2863
     56  CB        13.2720   37.0320   27.0440 C.3   144  SER144      0.2116
     57  OG        13.4780   38.4380   27.0050 O.3   144  SER144     -0.2180
     58  N         17.5800   30.1170   23.4610 N.3   322  ARG322     -0.1197
     59  CA        17.6790   31.1890   22.4390 C.3   322  ARG322      0.1779
     60  C         18.6220   30.6870   21.3360 C.2   322  ARG322      0.2305
     61  O         19.6230   31.3050   20.9170 O.2   322  ARG322     -0.2863
     62  CB        18.2070   32.4840   23.1030 C.2   322  ARG322     -0.0007
     63  CG        17.9470   33.7770   22.3600 C.2   322  ARG322      0.0176
     64  CD        18.3370   35.0810   23.0970 C.3   322  ARG322      0.2464
     65  NE        17.6460   35.1700   24.3850 N.pl3 322  ARG322     -0.0815
     66  CZ        18.1950   35.1820   25.5920 C.cat 322  ARG322      0.5349
     67  NH1       19.5200   35.2460   25.7960 N.pl3 322  ARG322      0.1354
     68  NH2       17.3960   35.0830   26.6490 N.pl3 322  ARG322      0.1354
     69  N         10.6110   52.8650   21.1170 N.3   418  GLY418     -0.1210
     70  CA        11.1570   52.1640   22.2690 C.3   418  GLY418      0.1956
     71  C         11.7800   50.8090   21.9970 C.2   418  GLY418      0.2612
     72  O         11.8400   49.9420   22.8910 O.2   418  GLY418     -0.2717
     73  N         12.3840   50.6210   20.8190 N.am  419  GLY419     -0.1942
     74  CA        13.0730   49.3790   20.4540 C.3   419  GLY419      0.2014
     75  C         14.1930   49.6470   19.4420 C.2   419  GLY419      0.2638
     76  O         14.2000   50.6590   18.7250 O.2   419  GLY419     -0.2714
     77  N         15.1280   48.6890   19.3500 N.am  420  ASN420     -0.1972
     78  CA        16.2760   48.7960   18.4500 C.3   420  ASN420      0.1688
     79  C         16.5100   47.5170   17.6520 C.2   420  ASN420      0.2292
     80  O         17.4970   46.7870   17.8740 O.2   420  ASN420     -0.2864
     81  CB        17.5260   49.1860   19.2840 C.3   420  ASN420      0.1181
     82  CG        18.7400   49.6330   18.4870 C.2   420  ASN420      0.2629
     83  OD1       18.7230   49.7790   17.2440 O.2   420  ASN420     -0.2716
     84  ND2       19.8600   49.9000   19.1760 N.am  420  ASN420     -0.0877
     85  N         19.9060   46.4780   16.2530 N.3   423  ALA423     -0.1231
     86  CA        20.8010   45.8530   17.1970 C.3   423  ALA423      0.1694
     87  C         20.2600   44.4460   17.5870 C.2   423  ALA423      0.2592
     88  O         21.0360   43.4590   17.6220 O.2   423  ALA423     -0.2718
     89  CB        21.0620   46.6080   18.5010 C.3   423  ALA423      0.0304
     90  N         18.9520   44.2970   17.8520 N.am  424  HIS424     -0.1976
     91  CA        18.4130   43.0660   18.4200 C.3   424  HIS424      0.1656
     92  C         18.1030   41.9000   17.4850 C.2   424  HIS424      0.2291
     93  O         18.1090   40.7430   17.9620 O.2   424  HIS424     -0.2864
     94  CB        17.1770   43.3530   19.3120 C.3   424  HIS424      0.0771
     95  CG        15.8350   43.6390   18.7020 C.ar  424  HIS424      0.0820
     96  ND1       15.0660   44.7240   19.1030 N.ar  424  HIS424     -0.2267
     97  CD2       15.0520   42.9790   17.7930 C.ar  424  HIS424      0.1154
     98  CE1       13.9180   44.6970   18.4300 C.ar  424  HIS424      0.1986
     99  NE2       13.8570   43.6540   17.6300 N.ar  424  HIS424     -0.2212
    100  N         18.5410   39.1950   14.2180 N.3   426  GLN426     -0.1245
    101  CA        19.6300   38.3920   13.6820 C.3   426  GLN426      0.1566
    102  C         19.9180   38.5710   12.1980 C.2   426  GLN426      0.2260
    103  O         19.0330   38.8980   11.3930 O.2   426  GLN426     -0.2867
    104  CB        19.3840   36.8910   13.9670 C.3   426  GLN426      0.0367
    105  CG        19.4350   36.4790   15.4420 C.3   426  GLN426      0.0905
    106  CD        18.4720   37.2350   16.3240 C.2   426  GLN426      0.2608
    107  OE1       17.2390   37.2480   16.1200 O.2   426  GLN426     -0.2717
    108  NE2       19.0080   37.9730   17.3020 N.am  426  GLN426     -0.0878
    109  N         12.6260   57.6930   19.1680 N.3   445  ASP445     -0.1239
    110  CA        13.5880   57.3880   20.2400 C.3   445  ASP445      0.1674
    111  C         14.2060   58.7090   20.7230 C.2   445  ASP445      0.2266
    112  O         13.9000   59.7750   20.1410 O.2   445  ASP445     -0.2867
    113  CB        14.6750   56.4260   19.6930 C.3   445  ASP445      0.1410
    114  CG        15.4010   55.5500   20.7040 C.2   445  ASP445      0.3668
    115  OD1       15.8580   56.0470   21.7640 O.co2 445  ASP445     -0.2456
    116  OD2       15.5710   54.3320   20.4380 O.co2 445  ASP445     -0.2456
    117  N         27.1310   35.1280   22.4780 N.3   627  ALA627     -0.1245
    118  CA        26.4970   36.4310   22.2440 C.3   627  ALA627      0.1562
    119  C         25.4800   36.7200   23.3500 C.2   627  ALA627      0.2260
    120  O         24.2680   36.8330   23.1130 O.2   627  ALA627     -0.2867
    121  CB        25.8610   36.4450   20.8470 C.3   627  ALA627      0.0290
    122  N         24.1940   38.6450   27.3240 N.3   629  HIS629     -0.1241
    123  CA        23.7740   40.0060   27.7270 C.3   629  HIS629      0.1621
    124  C         24.8840   40.7980   28.3840 C.2   629  HIS629      0.2264
    125  O         25.6600   40.2690   29.2100 O.2   629  HIS629     -0.2867
    126  CB        22.5070   39.8850   28.6050 C.3   629  HIS629      0.0745
    127  CG        21.2960   39.4460   27.8310 C.ar  629  HIS629      0.0817
    128  ND1       20.0030   39.8690   28.1250 N.ar  629  HIS629     -0.2268
    129  CD2       21.1760   38.6410   26.7390 C.ar  629  HIS629      0.1154
    130  CE1       19.1690   39.3300   27.2470 C.ar  629  HIS629      0.1986
    131  NE2       19.8430   38.5820   26.3970 N.ar  629  HIS629     -0.2212
    132  N         21.1130   45.8440   27.0240 N.3   635  HIS635     -0.1226
    133  CA        21.0710   45.6310   25.5680 C.3   635  HIS635      0.1752
    134  C         21.9320   46.6890   24.8600 C.2   635  HIS635      0.2597
    135  O         23.1440   46.7780   25.1530 O.2   635  HIS635     -0.2718
    136  CB        19.6490   45.5530   25.0050 C.3   635  HIS635      0.0759
    137  CG        18.7580   44.6030   25.7500 C.ar  635  HIS635      0.0818
    138  ND1       19.0460   43.2640   25.8870 N.ar  635  HIS635     -0.2268
    139  CD2       17.5950   44.8320   26.4080 C.ar  635  HIS635      0.1154
    140  CE1       18.0730   42.7050   26.5990 C.ar  635  HIS635      0.1986
    141  NE2       17.1830   43.6360   26.9360 N.ar  635  HIS635     -0.2212
    142  N         21.3660   47.5120   23.9760 N.am  636  SER636     -0.1938
    143  CA        22.0700   48.6010   23.3080 C.3   636  SER636      0.2055
    144  C         22.0500   49.8990   24.1390 C.2   636  SER636      0.2642
    145  O         22.7910   50.8640   23.8420 O.2   636  SER636     -0.2714
    146  CB        21.4530   48.9090   21.9320 C.3   636  SER636      0.2130
    147  OG        20.3170   49.7900   22.0070 O.3   636  SER636     -0.2179
    148  N         21.1850   49.9550   25.1590 N.am  637  GLN637     -0.1976
    149  CA        21.0400   51.1780   25.9510 C.3   637  GLN637      0.1601
    150  C         22.3330   51.5330   26.6670 C.2   637  GLN637      0.2287
    151  O         22.9680   50.6970   27.3240 O.2   637  GLN637     -0.2864
    152  CB        19.8450   51.1340   26.9330 C.3   637  GLN637      0.0394
    153  CG        18.5050   50.8410   26.2390 C.3   637  GLN637      0.0908
    154  CD        17.2660   51.2480   27.0150 C.2   637  GLN637      0.2608
    155  OE1       17.1370   52.3630   27.5470 O.2   637  GLN637     -0.2717
    156  NE2       16.2790   50.3320   27.0510 N.am  637  GLN637     -0.0878
    157  N         25.7790   41.0620   23.1130 N.3   701  GLU701     -0.1245
    158  CA        24.7980   41.7380   22.2510 C.3   701  GLU701      0.1567
    159  C         24.6310   43.2120   22.6440 C.2   701  GLU701      0.2260
    160  O         24.9530   43.6370   23.7770 O.2   701  GLU701     -0.2867
    161  CB        23.4460   41.0000   22.3240 C.3   701  GLU701      0.0388
    162  CG        22.7570   40.8750   23.6640 C.3   701  GLU701      0.1160
    163  CD        21.7420   41.9220   24.0650 C.2   701  GLU701      0.3649
    164  OE1       21.7030   43.0310   23.4830 O.co2 701  GLU701     -0.2457
    165  OE2       20.9420   41.6230   25.0200 O.co2 701  GLU701     -0.2457
    166  N         27.2900   42.1790   17.3470 N.3   722  VAL722     -0.1231
    167  CA        27.4170   40.7240   17.1900 C.3   722  VAL722      0.1692
    168  C         26.3690   40.1050   16.2770 C.2   722  VAL722      0.2592
    169  O         26.6120   39.0320   15.6880 O.2   722  VAL722     -0.2718
    170  CB        27.4500   40.0330   18.5760 C.3   722  VAL722      0.0266
    171  CG1       26.0750   39.9810   19.2180 C.3   722  VAL722      0.0020
    172  CG2       28.0960   38.6460   18.5130 C.3   722  VAL722      0.0020
    173  N         25.2060   40.7560   16.1010 N.am  723  ASN723     -0.1974
    174  CA        24.1510   40.2560   15.2220 C.3   723  ASN723      0.1688
    175  C         24.4490   40.4060   13.7330 C.2   723  ASN723      0.2292
    176  O         23.6630   39.9480   12.8740 O.2   723  ASN723     -0.2864
    177  CB        22.7680   40.7420   15.6410 C.3   723  ASN723      0.1181
    178  CG        22.1360   39.9160   16.7520 C.2   723  ASN723      0.2629
    179  OD1       22.1180   38.6630   16.7180 O.2   723  ASN723     -0.2716
    180  ND2       21.5580   40.5700   17.7640 N.am  723  ASN723     -0.0877
    181  N         13.7260   32.9920   18.1620 N.3   738  ASN738     -0.1240
    182  CA        15.0320   33.3460   17.5920 C.3   738  ASN738      0.1653
    183  C         16.1310   32.4000   18.1010 C.2   738  ASN738      0.2266
    184  O         16.0690   31.8230   19.2080 O.2   738  ASN738     -0.2867
    185  CB        15.4370   34.7940   17.8950 C.3   738  ASN738      0.1155
    186  CG        16.0140   35.0600   19.2760 C.2   738  ASN738      0.2627
    187  OD1       17.2310   35.0110   19.4940 O.2   738  ASN738     -0.2716
    188  ND2       15.1270   35.3370   20.2350 N.am  738  ASN738     -0.0877
    189  N         19.5200   33.4580   18.3540 N.3   740  GLY740     -0.1210
    190  CA        20.6120   34.4010   18.5110 C.3   740  GLY740      0.1956
    191  C         21.9090   33.9520   19.1520 C.2   740  GLY740      0.2611
    192  O         22.9300   34.6800   19.0310 O.2   740  GLY740     -0.2717
    193  N         21.9420   32.7950   19.8090 N.am  741  GLN741     -0.1979
    194  CA        23.1600   32.2470   20.3950 C.3   741  GLN741      0.1601
    195  C         23.6450   30.9820   19.6870 C.2   741  GLN741      0.2287
    196  O         24.5320   30.2840   20.2130 O.2   741  GLN741     -0.2864
    197  CB        23.0940   32.1950   21.9280 C.3   741  GLN741      0.0394
    198  CG        23.1610   33.5830   22.5690 C.3   741  GLN741      0.0908
    199  CD        23.3560   33.6080   24.0660 C.2   741  GLN741      0.2608
    200  OE1       24.1650   32.8480   24.6180 O.2   741  GLN741     -0.2717
    201  NE2       22.6450   34.4820   24.7790 N.am  741  GLN741     -0.0878
    202  N         25.9030   30.4350   16.9580 N.3   743  ILE743     -0.1245
    203  CA        26.8710   31.1360   16.1260 C.3   743  ILE743      0.1561
    204  C         28.2810   30.5320   16.1480 C.2   743  ILE743      0.2260
    205  O         28.8930   30.4370   17.2240 O.2   743  ILE743     -0.2867
    206  CB        27.0640   32.6320   16.5620 C.3   743  ILE743      0.0252
    207  CG1       25.7850   33.4420   16.7480 C.3   743  ILE743      0.0019
    208  CG2       27.9970   33.3540   15.5820 C.3   743  ILE743      0.0019
    209  CD1       25.9540   34.8380   17.3160 C.3   743  ILE743      0.0001
@<TRIPOS>BOND
     1   103   102    2
     2   102   101    1
     3   176   175    2
     4   101   104    1
     5   101   100    1
     6   175   174    1
     7   104   105    1
     8   174   177    1
     9   174   173    1
    10   105   106    1
    11   208   206    1
    12   177   178    1
    13   169   168    2
    14   173   168   am
    15   107   106    2
    16   203   204    1
    17   203   206    1
    18   203   202    1
    19   204   205    2
    20    51    50    1
    21    85    86    1
    22   168   167    1
    23   106   108   am
    24   206   207    1
    25   179   178    2
    26   207   209    1
    27   178   180   am
    28   167   166    1
    29   167   170    1
    30    86    87    1
    31    86    89    1
    32    83    82    2
    33    92    93    2
    34    92    91    1
    35    50    49   ar
    36    50    48   ar
    37    87    88    2
    38    87    90   am
    39   182   185    1
    40   182   183    1
    41   182   181    1
    42    99    97   ar
    43    99    98   ar
    44    79    80    2
    45    79    78    1
    46    97    95   ar
    47    90    91    1
    48   185   186    1
    49    49    47   ar
    50   183   184    2
    51   189   190    1
    52    91    94    1
    53    98    96   ar
    54    78    81    1
    55    78    77    1
    56    82    84   am
    57    82    81    1
    58    48    46   ar
    59   190   191    1
    60   172   170    1
    61   170   171    1
    62    95    96   ar
    63    95    94    1
    64    76    75    2
    65     1     2    1
    66   192   191    2
    67   191   193   am
    68   109   110    1
    69    47    45   ar
    70   186   187    2
    71   186   188   am
    72    77    75   am
    73    75    74    1
    74   195   196    2
    75   195   194    1
    76   113   110    1
    77   113   114    1
    78   193   194    1
    79    46    45   ar
    80     4     3    2
    81     5     2    1
    82     5     6    1
    83   112   111    2
    84     2     3    1
    85   110   111    1
    86    45    44    1
    87   194   197    1
    88   116   114   ar
    89    74    73    1
    90   114   115   ar
    91     3    13   am
    92    73    71   am
    93   121   118    1
    94    61    60    2
    95    69    70    1
    96    60    59    1
    97     6     8   ar
    98     6     7   ar
    99    44    41    1
   100   197   198    1
   101   146   147    1
   102   146   143    1
   103    71    70    1
   104    71    72    2
   105     8    10   ar
   106    13    14    1
   107     7     9   ar
   108    41    40    1
   109    41    42    1
   110   118   117    1
   111   118   119    1
   112   158   161    1
   113   158   159    1
   114   158   157    1
   115   161   162    1
   116    63    64    1
   117    63    62    2
   118    59    62    1
   119    59    58    1
   120   198   199    1
   121   159   160    2
   122    14    15    1
   123    64    65    1
   124   120   119    2
   125    43    42    2
   126   143   142    1
   127   143   144    1
   128    10    11   ar
   129    42    52   am
   130     9    11   ar
   131   164   163   ar
   132   162   163    1
   133   145   144    2
   134   142   134   am
   135    11    12    1
   136   163   165   ar
   137   199   200    2
   138   199   201   am
   139   144   148   am
   140    15    16    2
   141    15    17   am
   142    65    66    2
   143    52    53    1
   144   134   135    2
   145   134   133    1
   146    17    18    1
   147   136   133    1
   148   136   137    1
   149   148   149    1
   150   133   132    1
   151    66    67    1
   152    66    68    1
   153   137   138   ar
   154   137   139   ar
   155    53    54    1
   156    53    56    1
   157   138   140   ar
   158    31    32    1
   159    31    19   am
   160   149   150    1
   161   149   152    1
   162    35    32    1
   163    35    36    2
   164    54    55    2
   165   153   152    1
   166   153   154    1
   167    32    33    1
   168    18    19    1
   169    18    21    1
   170   131   129   ar
   171   131   130   ar
   172   139   141   ar
   173   140   141   ar
   174   150   151    2
   175    37    36    1
   176    37    38    1
   177   129   127   ar
   178    19    20    2
   179    23    22   ar
   180    23    25   ar
   181    57    56    1
   182   154   156   am
   183   154   155    2
   184    21    22    1
   185   130   128   ar
   186   122   123    1
   187    38    39    1
   188    22    24   ar
   189    25    26   ar
   190    33    34    2
   191   123   124    1
   192   123   126    1
   193   127   128   ar
   194   127   126    1
   195   124   125    2
   196    24    26   ar
   197    24    27   ar
   198    26    28   ar
   199    28    30   ar
   200    27    29   ar
   201    30    29   ar
