@<TRIPOS>MOLECULE
tmp/1eu8A00.pdb
 182 175 0 0 0
SMALL
GASTEIGER

@<TRIPOS>ATOM
      1  N         64.8540   80.7890   79.3580 N.3    11  GLY11      -0.1210
      2  CA        65.5470   80.9680   78.0950 C.3    11  GLY11       0.1956
      3  C         66.0770   82.3830   77.9840 C.2    11  GLY11       0.2612
      4  O         66.3770   83.0200   78.9960 O.2    11  GLY11      -0.2717
      5  N         66.1870   82.8770   76.7560 N.am   12  GLY12      -0.1942
      6  CA        66.6790   84.2260   76.5400 C.3    12  GLY12       0.2014
      7  C         67.8820   84.2420   75.6200 C.2    12  GLY12       0.2638
      8  O         68.2140   83.2290   75.0090 O.2    12  GLY12      -0.2714
      9  N         68.5280   85.3940   75.5000 N.am   13  ALA13      -0.1977
     10  CA        69.7180   85.4990   74.6680 C.3    13  ALA13       0.1597
     11  C         70.7930   84.6470   75.3350 C.2    13  ALA13       0.2287
     12  O         70.7970   84.4920   76.5590 O.2    13  ALA13      -0.2864
     13  CB        70.1780   86.9500   74.5910 C.3    13  ALA13       0.0319
     14  N         72.3020   85.8050   78.5610 N.3    16  GLU16      -0.1245
     15  CA        71.3830   85.8160   79.6990 C.3    16  GLU16       0.1567
     16  C         71.3060   84.4220   80.3090 C.2    16  GLU16       0.2260
     17  O         71.2660   84.2730   81.5290 O.2    16  GLU16      -0.2867
     18  CB        69.9830   86.2710   79.2740 C.3    16  GLU16       0.0388
     19  CG        69.9720   87.6180   78.5490 C.3    16  GLU16       0.1160
     20  CD        68.5840   88.0470   78.1040 C.2    16  GLU16       0.3649
     21  OE1       67.8090   87.1990   77.6020 O.co2  16  GLU16      -0.2457
     22  OE2       68.2730   89.2460   78.2460 O.co2  16  GLU16      -0.2457
     23  N         65.6070   81.5130   72.5820 N.3    43  THR43      -0.1203
     24  CA        65.4790   82.9570   72.7150 C.3    43  THR43       0.1994
     25  C         64.0820   83.3760   72.2680 C.2    43  THR43       0.2618
     26  O         63.4240   84.1850   72.9280 O.2    43  THR43      -0.2717
     27  CB        66.5320   83.6860   71.8490 C.3    43  THR43       0.1784
     28  OG1       67.8330   83.1580   72.1420 O.3    43  THR43      -0.2211
     29  CG2       66.5260   85.1870   72.1360 C.3    43  THR43       0.0376
     30  N         63.6380   82.8040   71.1490 N.am   44  ASP44      -0.1959
     31  CA        62.3260   83.0880   70.5660 C.3    44  ASP44       0.1840
     32  C         61.2430   82.9070   71.6190 C.2    44  ASP44       0.2622
     33  O         61.1130   81.8290   72.1930 O.2    44  ASP44      -0.2715
     34  CB        62.0530   82.1370   69.4000 C.3    44  ASP44       0.1450
     35  CG        60.7460   82.4430   68.6870 C.2    44  ASP44       0.3671
     36  OD1       60.6660   83.4910   68.0090 O.co2  44  ASP44      -0.2456
     37  OD2       59.7980   81.6410   68.8030 O.co2  44  ASP44      -0.2456
     38  N         60.4490   83.9470   71.8490 N.am   45  THR45      -0.1951
     39  CA        59.4190   83.8710   72.8680 C.3    45  THR45       0.1897
     40  C         58.3440   82.8140   72.6140 C.2    45  THR45       0.2313
     41  O         57.8440   82.2030   73.5630 O.2    45  THR45      -0.2863
     42  CB        58.7730   85.2530   73.1140 C.3    45  THR45       0.1794
     43  OG1       57.8030   85.1300   74.1580 O.3    45  THR45      -0.2208
     44  CG2       58.1150   85.7970   71.8520 C.3    45  THR45       0.0378
     45  N         59.6600   79.4870   73.6750 N.3    48  ARG48      -0.1245
     46  CA        59.6900   79.3920   75.1240 C.3    48  ARG48       0.1563
     47  C         58.2710   79.0920   75.6020 C.2    48  ARG48       0.2260
     48  O         58.0680   78.2720   76.4970 O.2    48  ARG48      -0.2867
     49  CB        60.2050   80.7040   75.7360 C.3    48  ARG48       0.0307
     50  CG        61.6660   80.9970   75.4000 C.3    48  ARG48       0.0489
     51  CD        62.1790   82.2900   76.0300 C.3    48  ARG48       0.2205
     52  NE        62.1940   82.2540   77.4930 N.pl3  48  ARG48      -0.0865
     53  CZ        62.6970   83.2230   78.2580 C.cat  48  ARG48       0.5346
     54  NH1       63.2320   84.3070   77.7010 N.pl3  48  ARG48       0.1354
     55  NH2       62.6710   83.1090   79.5810 N.pl3  48  ARG48       0.1354
     56  N         56.5810   85.2970   79.3840 N.3    69  ASP69      -0.1239
     57  CA        56.5810   86.5810   78.7090 C.3    69  ASP69       0.1674
     58  C         55.3460   87.3350   79.1960 C.2    69  ASP69       0.2266
     59  O         54.2550   86.7610   79.2860 O.2    69  ASP69      -0.2867
     60  CB        56.4970   86.3580   77.1940 C.3    69  ASP69       0.1410
     61  CG        56.8060   87.6060   76.3940 C.2    69  ASP69       0.3668
     62  OD1       56.4950   88.7220   76.8740 O.co2  69  ASP69      -0.2456
     63  OD2       57.3440   87.4650   75.2720 O.co2  69  ASP69      -0.2456
     64  N         61.9260   91.3640   85.1710 N.3   120  TYR120     -0.1241
     65  CA        62.3470   92.6040   84.5370 C.3   120  TYR120      0.1605
     66  C         61.2370   93.1560   83.6540 C.2   120  TYR120      0.2264
     67  O         60.3850   92.4140   83.1510 O.2   120  TYR120     -0.2867
     68  CB        63.6600   92.4560   83.7470 C.3   120  TYR120      0.0534
     69  CG        63.7130   91.4210   82.6390 C.ar  120  TYR120     -0.0201
     70  CD1       63.8790   90.0650   82.9270 C.ar  120  TYR120     -0.0009
     71  CD2       63.7390   91.8140   81.2980 C.ar  120  TYR120     -0.0009
     72  CE1       64.0900   89.1280   81.9060 C.ar  120  TYR120      0.0417
     73  CE2       63.9430   90.8830   80.2720 C.ar  120  TYR120      0.0417
     74  CZ        64.1270   89.5490   80.5840 C.ar  120  TYR120      0.1957
     75  OH        64.3940   88.6510   79.5740 O.3   120  TYR120     -0.2866
     76  N         60.6850   95.1860   80.3340 N.3   122  ASP122     -0.1239
     77  CA        61.2760   95.6500   79.0800 C.3   122  ASP122      0.1674
     78  C         60.4420   96.7580   78.4480 C.2   122  ASP122      0.2266
     79  O         59.2230   96.8110   78.6180 O.2   122  ASP122     -0.2867
     80  CB        61.3790   94.5020   78.0660 C.3   122  ASP122      0.1410
     81  CG        62.6780   93.7110   78.1800 C.2   122  ASP122      0.3668
     82  OD1       63.6600   94.2260   78.7530 O.co2 122  ASP122     -0.2456
     83  OD2       62.7250   92.5720   77.6660 O.co2 122  ASP122     -0.2456
     84  N         57.2730   87.3060   63.4730 N.3   176  TYR176     -0.1227
     85  CA        57.2250   86.6710   64.7860 C.3   176  TYR176      0.1736
     86  C         56.7710   87.7330   65.7860 C.2   176  TYR176      0.2595
     87  O         56.5080   88.8770   65.3960 O.2   176  TYR176     -0.2718
     88  CB        58.6040   86.0990   65.1750 C.3   176  TYR176      0.0548
     89  CG        59.5950   87.1170   65.7110 C.ar  176  TYR176     -0.0200
     90  CD1       59.9310   88.2530   64.9720 C.ar  176  TYR176     -0.0009
     91  CD2       60.1780   86.9520   66.9650 C.ar  176  TYR176     -0.0009
     92  CE1       60.8090   89.2030   65.4690 C.ar  176  TYR176      0.0417
     93  CE2       61.0610   87.9030   67.4790 C.ar  176  TYR176      0.0417
     94  CZ        61.3730   89.0300   66.7220 C.ar  176  TYR176      0.1957
     95  OH        62.2110   90.0140   67.2190 O.3   176  TYR176     -0.2866
     96  N         56.6950   87.3650   67.0620 N.am  177  GLU177     -0.1965
     97  CA        56.2290   88.2810   68.0990 C.3   177  GLU177      0.1733
     98  C         56.9590   89.6130   68.1530 C.2   177  GLU177      0.2616
     99  O         56.3400   90.6520   68.3630 O.2   177  GLU177     -0.2715
    100  CB        56.2900   87.6000   69.4690 C.3   177  GLU177      0.0429
    101  CG        55.6990   88.4200   70.6170 C.3   177  GLU177      0.1163
    102  CD        54.2350   88.7490   70.4110 C.2   177  GLU177      0.3649
    103  OE1       53.5140   87.8940   69.8650 O.co2 177  GLU177     -0.2457
    104  OE2       53.7990   89.8500   70.8100 O.co2 177  GLU177     -0.2457
    105  N         58.2700   89.5920   67.9670 N.am  178  GLY178     -0.1955
    106  CA        59.0280   90.8300   68.0100 C.3   178  GLY178      0.1869
    107  C         58.5480   91.9180   67.0620 C.2   178  GLY178      0.2309
    108  O         58.6920   93.1060   67.3580 O.2   178  GLY178     -0.2863
    109  N         55.8270   94.0170   68.5320 N.3   181  CYS181     -0.1235
    110  CA        56.3360   95.0150   69.4680 C.3   181  CYS181      0.1677
    111  C         56.8250   96.2650   68.7320 C.2   181  CYS181      0.2270
    112  O         56.5130   97.3870   69.1370 O.2   181  CYS181     -0.2867
    113  CB        57.4540   94.4170   70.3210 C.3   181  CYS181      0.0956
    114  SG        56.8770   93.0610   71.3440 S.3   181  CYS181     -0.0801
    115  N         65.6370   89.9360   67.6590 N.3   238  GLU238     -0.1245
    116  CA        66.4740   90.5580   68.6810 C.3   238  GLU238      0.1567
    117  C         67.9860   90.4240   68.5240 C.2   238  GLU238      0.2260
    118  O         68.6860   91.4290   68.4180 O.2   238  GLU238     -0.2867
    119  CB        66.0890   90.0530   70.0820 C.3   238  GLU238      0.0388
    120  CG        64.8500   90.6980   70.7060 C.3   238  GLU238      0.1160
    121  CD        63.5550   90.2810   70.0360 C.2   238  GLU238      0.3649
    122  OE1       63.5770   89.2980   69.2710 O.co2 238  GLU238     -0.2457
    123  OE2       62.5080   90.9240   70.2840 O.co2 238  GLU238     -0.2457
    124  N         65.5470   95.9820   73.0590 N.3   256  TRP256     -0.1241
    125  CA        65.1850   95.9870   74.4620 C.3   256  TRP256      0.1605
    126  C         66.4100   96.3110   75.3190 C.2   256  TRP256      0.2264
    127  O         67.5340   96.3370   74.8230 O.2   256  TRP256     -0.2867
    128  CB        64.6240   94.6170   74.8390 C.3   256  TRP256      0.0550
    129  CG        63.5330   94.1320   73.9390 C.ar  256  TRP256      0.0003
    130  CD1       63.6520   93.2320   72.9220 C.ar  256  TRP256      0.0946
    131  CD2       62.1420   94.4860   74.0030 C.ar  256  TRP256      0.0152
    132  NE1       62.4220   92.9940   72.3500 N.ar  256  TRP256     -0.2442
    133  CE2       61.4780   93.7500   72.9960 C.ar  256  TRP256      0.0810
    134  CE3       61.3930   95.3490   74.8150 C.ar  256  TRP256      0.0012
    135  CZ2       60.0900   93.8500   72.7780 C.ar  256  TRP256      0.0191
    136  CZ3       60.0080   95.4490   74.5980 C.ar  256  TRP256      0.0001
    137  CH2       59.3790   94.7000   73.5880 C.ar  256  TRP256      0.0015
    138  N         68.3010   94.6370   77.3350 N.3   258  TYR258     -0.1241
    139  CA        69.4360   93.6920   77.3490 C.3   258  TYR258      0.1605
    140  C         70.5670   93.9770   76.3460 C.2   258  TYR258      0.2264
    141  O         71.7190   93.6030   76.5860 O.2   258  TYR258     -0.2867
    142  CB        68.9590   92.2450   77.1490 C.3   258  TYR258      0.0534
    143  CG        68.9740   91.8030   75.7100 C.ar  258  TYR258     -0.0201
    144  CD1       68.0400   92.3030   74.8000 C.ar  258  TYR258     -0.0009
    145  CD2       69.9670   90.9380   75.2380 C.ar  258  TYR258     -0.0009
    146  CE1       68.0990   91.9660   73.4640 C.ar  258  TYR258      0.0417
    147  CE2       70.0380   90.5980   73.9030 C.ar  258  TYR258      0.0417
    148  CZ        69.1050   91.1140   73.0250 C.ar  258  TYR258      0.1957
    149  OH        69.2040   90.8100   71.7010 O.3   258  TYR258     -0.2866
    150  N         57.3130   95.0110   77.6420 N.3   292  GLY292     -0.1210
    151  CA        57.7280   93.6330   77.4710 C.3   292  GLY292      0.1956
    152  C         58.3020   93.1600   78.7820 C.2   292  GLY292      0.2612
    153  O         58.0950   93.7980   79.8180 O.2   292  GLY292     -0.2717
    154  N         59.0180   92.0460   78.7610 N.am  293  GLY293     -0.1942
    155  CA        59.5990   91.5780   79.9990 C.3   293  GLY293      0.2014
    156  C         59.1420   90.1980   80.3820 C.2   293  GLY293      0.2638
    157  O         58.2010   89.6410   79.8030 O.2   293  GLY293     -0.2714
    158  N         59.8200   89.6510   81.3830 N.am  294  TRP294     -0.1973
    159  CA        59.5390   88.3090   81.8370 C.3   294  TRP294      0.1640
    160  C         59.2210   88.2410   83.3160 C.2   294  TRP294      0.2290
    161  O         59.8360   88.9240   84.1430 O.2   294  TRP294     -0.2864
    162  CB        60.7160   87.4110   81.4580 C.3   294  TRP294      0.0576
    163  CG        60.8310   87.3550   79.9700 C.ar  294  TRP294      0.0006
    164  CD1       61.2390   88.3630   79.1320 C.ar  294  TRP294      0.0946
    165  CD2       60.3920   86.2920   79.1300 C.ar  294  TRP294      0.0152
    166  NE1       61.0720   87.9910   77.8240 N.ar  294  TRP294     -0.2442
    167  CE2       60.5530   86.7250   77.7940 C.ar  294  TRP294      0.0810
    168  CE3       59.8680   85.0140   79.3760 C.ar  294  TRP294      0.0012
    169  CZ2       60.2050   85.9160   76.7040 C.ar  294  TRP294      0.0191
    170  CZ3       59.5260   84.2150   78.2990 C.ar  294  TRP294      0.0001
    171  CH2       59.6950   84.6690   76.9770 C.ar  294  TRP294      0.0015
    172  N         50.6130   95.3900   74.9390 N.3   363  ARG363     -0.1245
    173  CA        49.9680   94.7770   73.7860 C.3   363  ARG363      0.1563
    174  C         48.6240   94.3660   74.4020 C.2   363  ARG363      0.2260
    175  O         48.4970   94.3270   75.6270 O.2   363  ARG363     -0.2867
    176  CB        50.7540   93.5430   73.3310 C.3   363  ARG363      0.0307
    177  CG        51.9300   93.8500   72.4100 C.3   363  ARG363      0.0489
    178  CD        52.9530   92.7260   72.4410 C.3   363  ARG363      0.2205
    179  NE        53.7630   92.7620   73.6610 N.pl3 363  ARG363     -0.0865
    180  CZ        54.8100   91.9700   73.8880 C.cat 363  ARG363      0.5346
    181  NH1       55.1760   91.0710   72.9790 N.pl3 363  ARG363      0.1354
    182  NH2       55.5070   92.0900   75.0150 N.pl3 363  ARG363      0.1354
@<TRIPOS>BOND
     1    84    85    1
     2    85    88    1
     3    85    86    1
     4    90    92   ar
     5    90    89   ar
     6    88    89    1
     7    87    86    2
     8    92    94   ar
     9    89    91   ar
    10    86    96   am
    11    94    95    1
    12    94    93   ar
    13    91    93   ar
    14    96    97    1
    15   107   108    2
    16   107   106    1
    17   115   116    1
    18   105   106    1
    19   105    98   am
    20    36    35   ar
    21    97    98    1
    22    97   100    1
    23    98    99    2
    24   118   117    2
    25   117   116    1
    26   109   110    1
    27   116   119    1
    28    35    37   ar
    29    35    34    1
    30   111   112    2
    31   111   110    1
    32   122   121   ar
    33    34    31    1
    34   110   113    1
    35   100   101    1
    36   103   102   ar
    37   121   123   ar
    38   121   120    1
    39   119   120    1
    40   113   114    1
    41   102   101    1
    42   102   104   ar
    43    31    30    1
    44    31    32    1
    45    30    25   am
    46    32    38   am
    47    32    33    2
    48   149   148    1
    49    38    39    1
    50    27    29    1
    51    27    28    1
    52    27    24    1
    53    44    42    1
    54    25    24    1
    55    25    26    2
    56   132   130   ar
    57   132   133   ar
    58   177   178    1
    59   177   176    1
    60   178   179    1
    61    23    24    1
    62    40    39    1
    63    40    41    2
    64   135   133   ar
    65   135   137   ar
    66    39    42    1
    67   130   129   ar
    68   181   180    1
    69   133   131   ar
    70   148   146   ar
    71   148   147   ar
    72   124   125    1
    73    42    43    1
    74   176   173    1
    75   146   144   ar
    76   137   136   ar
    77   179   180    2
    78    45    46    1
    79   173   174    1
    80   173   172    1
    81   180   182    1
    82   147   145   ar
    83   129   131   ar
    84   129   128    1
    85   131   134   ar
    86   174   175    2
    87   125   128    1
    88   125   126    1
    89    13    10    1
    90   136   134   ar
    91    10    11    1
    92    10     9    1
    93   144   143   ar
    94   127   126    2
    95     8     7    2
    96    46    47    1
    97    46    49    1
    98   145   143   ar
    99    63    61   ar
   100    11    12    2
   101    50    49    1
   102    50    51    1
   103     9     7   am
   104    47    48    2
   105     7     6    1
   106   143   142    1
   107    51    52    1
   108   140   141    2
   109   140   139    1
   110    61    62   ar
   111    61    60    1
   112     6     5    1
   113   169   171   ar
   114   169   167   ar
   115     5     3   am
   116   171   170   ar
   117   142   139    1
   118    60    57    1
   119   138   139    1
   120   151   150    1
   121   151   152    1
   122    52    53    2
   123    21    20   ar
   124    83    81   ar
   125    54    53    1
   126   167   166   ar
   127   167   165   ar
   128   166   164   ar
   129     3     2    1
   130     3     4    2
   131    80    81    1
   132    80    77    1
   133     2     1    1
   134    20    22   ar
   135    20    19    1
   136    81    82   ar
   137    53    55    1
   138   170   168   ar
   139    78    79    2
   140    78    77    1
   141    19    18    1
   142    14    15    1
   143    57    58    1
   144    57    56    1
   145   154   152   am
   146   154   155    1
   147   152   153    2
   148    77    76    1
   149   165   168   ar
   150   165   163   ar
   151   164   163   ar
   152    58    59    2
   153    18    15    1
   154    75    74    1
   155    15    16    1
   156   157   156    2
   157   163   162    1
   158   155   156    1
   159    73    74   ar
   160    73    71   ar
   161    16    17    2
   162   156   158   am
   163    74    72   ar
   164    71    69   ar
   165   158   159    1
   166   162   159    1
   167   159   160    1
   168    72    70   ar
   169    69    70   ar
   170    69    68    1
   171    67    66    2
   172   160   161    2
   173    66    65    1
   174    68    65    1
   175    65    64    1
