@<TRIPOS>MOLECULE
tmp/1eubA00.pdb
 105 106 0 0 0
SMALL
GASTEIGER

@<TRIPOS>ATOM
      1  N          0.2270   -1.6960    5.0970 N.3    80  GLY80      -0.1210
      2  CA         1.0540   -2.0390    3.9070 C.3    80  GLY80       0.1956
      3  C          0.1800   -2.1650    2.6680 C.2    80  GLY80       0.2612
      4  O         -0.1010   -3.2540    2.2080 O.2    80  GLY80      -0.2717
      5  N         -0.2430   -1.0690    2.1160 N.am   81  LEU81      -0.1965
      6  CA        -1.0950   -1.1430    0.9030 C.3    81  LEU81       0.1728
      7  C         -1.4710    0.2620    0.4410 C.2    81  LEU81       0.2616
      8  O         -2.4740    0.8050    0.8490 O.2    81  LEU81      -0.2715
      9  CB        -2.3400   -1.9010    1.3590 C.3    81  LEU81       0.0311
     10  CG        -2.9960   -2.5880    0.1620 C.3    81  LEU81       0.0022
     11  CD1       -3.7950   -3.8000    0.6420 C.3    81  LEU81       0.0001
     12  CD2       -3.9350   -1.6070   -0.5390 C.3    81  LEU81       0.0001
     13  N         -0.6770    0.8690   -0.3960 N.am   82  LEU82      -0.1963
     14  CA        -1.0300    2.2450   -0.8490 C.3    82  LEU82       0.1728
     15  C         -1.5400    2.2480   -2.2960 C.2    82  LEU82       0.2616
     16  O         -2.2230    3.1670   -2.7020 O.2    82  LEU82      -0.2715
     17  CB         0.2540    3.0640   -0.7280 C.3    82  LEU82       0.0311
     18  CG        -0.0880    4.5510   -0.8390 C.3    82  LEU82       0.0022
     19  CD1        0.5450    5.3060    0.3300 C.3    82  LEU82       0.0001
     20  CD2        0.4640    5.1000   -2.1580 C.3    82  LEU82       0.0001
     21  N         -1.2280    1.2530   -3.0870 N.am   83  ALA83      -0.1963
     22  CA        -1.7230    1.2720   -4.5000 C.3    83  ALA83       0.1728
     23  C         -1.8840   -0.1420   -5.0790 C.2    83  ALA83       0.2616
     24  O         -0.9200   -0.8250   -5.3750 O.2    83  ALA83      -0.2715
     25  CB        -0.6580    2.0510   -5.2750 C.3    83  ALA83       0.0334
     26  N         -3.1080   -0.5730   -5.2650 N.am   84  HIS84      -0.1959
     27  CA        -3.3550   -1.9280   -5.8440 C.3    84  HIS84       0.1787
     28  C         -3.8440   -1.7910   -7.2960 C.2    84  HIS84       0.2620
     29  O         -4.7990   -1.0920   -7.5730 O.2    84  HIS84      -0.2715
     30  CB        -4.4300   -2.5580   -4.9380 C.3    84  HIS84       0.0785
     31  CG        -5.8120   -2.3410   -5.5080 C.ar   84  HIS84       0.0821
     32  ND1       -6.2220   -2.9410   -6.6870 N.ar   84  HIS84      -0.2267
     33  CD2       -6.8840   -1.6000   -5.0720 C.ar   84  HIS84       0.1154
     34  CE1       -7.4890   -2.5560   -6.9200 C.ar   84  HIS84       0.1986
     35  NE2       -7.9410   -1.7380   -5.9650 N.ar   84  HIS84      -0.2212
     36  N         -3.1920   -2.4410   -8.2210 N.am   85  ALA85      -0.1977
     37  CA        -3.6160   -2.3320   -9.6480 C.3    85  ALA85       0.1597
     38  C         -4.1000   -3.6880  -10.1720 C.2    85  ALA85       0.2287
     39  O         -3.6540   -4.7280   -9.7300 O.2    85  ALA85      -0.2864
     40  CB        -2.3520   -1.8990  -10.3900 C.3    85  ALA85       0.0319
     41  N          4.2340    4.1980  -10.2450 N.3   119  HIS119     -0.1226
     42  CA         4.4460    2.8210   -9.7290 C.3   119  HIS119      0.1752
     43  C          3.1690    1.9930   -9.9120 C.2   119  HIS119      0.2595
     44  O          3.1860    0.9180  -10.4830 O.2   119  HIS119     -0.2718
     45  CB         4.7730    3.0440   -8.2590 C.3   119  HIS119      0.0759
     46  CG         5.0960    1.7350   -7.6210 C.ar  119  HIS119      0.0818
     47  ND1        6.2770    1.5370   -6.9420 N.ar  119  HIS119     -0.2268
     48  CD2        4.4180    0.5450   -7.5610 C.ar  119  HIS119      0.1154
     49  CE1        6.2820    0.2750   -6.5030 C.ar  119  HIS119      0.1986
     50  NE2        5.1710   -0.3810   -6.8510 N.ar  119  HIS119     -0.2212
     51  N          2.0590    2.4970   -9.4490 N.am  120  GLU120     -0.1979
     52  CA         0.7830    1.7560   -9.6110 C.3   120  GLU120      0.1602
     53  C          0.5320    1.5170  -11.0980 C.2   120  GLU120      0.2287
     54  O          0.3490    0.3990  -11.5330 O.2   120  GLU120     -0.2864
     55  CB        -0.2870    2.6700   -9.0060 C.3   120  GLU120      0.0415
     56  CG        -1.5630    1.8690   -8.7430 C.3   120  GLU120      0.1163
     57  CD        -1.2110    0.5610   -8.0350 C.2   120  GLU120      0.3649
     58  OE1       -0.2390    0.5500   -7.2990 O.co2 120  GLU120     -0.2457
     59  OE2       -1.9150   -0.4060   -8.2470 O.co2 120  GLU120     -0.2457
     60  N          2.2970   -1.0540  -12.6220 N.3   123  HIS123     -0.1241
     61  CA         1.7270   -2.3980  -12.3050 C.3   123  HIS123      0.1621
     62  C          0.4240   -2.6220  -13.0800 C.2   123  HIS123      0.2264
     63  O          0.3480   -3.4500  -13.9670 O.2   123  HIS123     -0.2867
     64  CB         1.4400   -2.3600  -10.8070 C.3   123  HIS123      0.0745
     65  CG         2.6350   -2.8690  -10.0580 C.ar  123  HIS123      0.0817
     66  ND1        3.8580   -3.0760  -10.6730 N.ar  123  HIS123     -0.2268
     67  CD2        2.8160   -3.2100   -8.7410 C.ar  123  HIS123      0.1154
     68  CE1        4.7130   -3.5200   -9.7360 C.ar  123  HIS123      0.1986
     69  NE2        4.1300   -3.6190   -8.5380 N.ar  123  HIS123     -0.2212
     70  N          4.8830   -7.6470  -10.8740 N.3   129  HIS129     -0.1241
     71  CA         6.0150   -6.8070  -10.3810 C.3   129  HIS129      0.1621
     72  C          7.2460   -7.0120  -11.2660 C.2   129  HIS129      0.2264
     73  O          7.2130   -7.7440  -12.2340 O.2   129  HIS129     -0.2867
     74  CB         6.3100   -7.3000   -8.9610 C.3   129  HIS129      0.0745
     75  CG         5.6950   -6.3580   -7.9610 C.ar  129  HIS129      0.0817
     76  ND1        4.4370   -6.5720   -7.4170 N.ar  129  HIS129     -0.2268
     77  CD2        6.1490   -5.1900   -7.3990 C.ar  129  HIS129      0.1154
     78  CE1        4.1810   -5.5570   -6.5710 C.ar  129  HIS129      0.1986
     79  NE2        5.1930   -4.6860   -6.5230 N.ar  129  HIS129     -0.2212
     80  N          8.7760   -0.7200   -8.0580 N.3   137  MET137     -0.1230
     81  CA         7.7200   -1.7600   -7.8880 C.3   137  MET137      0.1702
     82  C          7.6960   -2.2820   -6.4450 C.2   137  MET137      0.2592
     83  O          6.6570   -2.6180   -5.9150 O.2   137  MET137     -0.2718
     84  CB         8.1210   -2.8840   -8.8440 C.3   137  MET137      0.0401
     85  CG         8.5660   -2.2970  -10.1880 C.3   137  MET137      0.0596
     86  SD         7.1330   -1.6190  -11.0580 S.3   137  MET137     -0.1393
     87  CE         6.7940   -3.0660  -12.0890 C.3   137  MET137      0.0692
     88  N          8.8320   -2.3570   -5.8070 N.am  138  PHE138     -0.1963
     89  CA         8.8600   -2.8640   -4.4010 C.3   138  PHE138      0.1756
     90  C          7.9590   -2.0020   -3.5080 C.2   138  PHE138      0.2461
     91  O          7.4800   -0.9680   -3.9270 O.2   138  PHE138     -0.2730
     92  CB        10.3270   -2.7870   -3.9380 C.3   138  PHE138      0.0574
     93  CG        11.0440   -1.5930   -4.5330 C.ar  138  PHE138     -0.0200
     94  CD1       10.3620   -0.3910   -4.7640 C.ar  138  PHE138     -0.0042
     95  CD2       12.4050   -1.6920   -4.8450 C.ar  138  PHE138     -0.0042
     96  CE1       11.0420    0.7080   -5.3040 C.ar  138  PHE138     -0.0003
     97  CE2       13.0850   -0.5940   -5.3850 C.ar  138  PHE138     -0.0003
     98  CZ        12.4030    0.6070   -5.6140 C.ar  138  PHE138     -0.0000
     99  N          7.7490   -2.4590   -2.2990 N.am  139  PRO139     -0.2727
    100  CA         6.8960   -1.7030   -1.3490 C.3   139  PRO139      0.1402
    101  C          7.5920   -0.4060   -0.9380 C.2   139  PRO139      0.2269
    102  O          7.0190    0.4400   -0.2810 O.2   139  PRO139     -0.2865
    103  CB         6.7480   -2.6530   -0.1630 C.3   139  PRO139      0.0296
    104  CG         7.9450   -3.5420   -0.2400 C.3   139  PRO139      0.0237
    105  CD         8.2690   -3.6960   -1.7030 C.3   139  PRO139      0.0939
@<TRIPOS>BOND
     1    63    62    2
     2    62    61    1
     3    60    61    1
     4    61    64    1
     5    73    72    2
     6    87    86    1
     7    54    53    2
     8    72    71    1
     9    53    52    1
    10    86    85    1
    11    70    71    1
    12    64    65    1
    13    66    65   ar
    14    66    68   ar
    15    44    43    2
    16    40    37    1
    17    71    74    1
    18    41    42    1
    19    85    84    1
    20    38    39    2
    21    38    37    1
    22    65    67   ar
    23    43    42    1
    24    43    51   am
    25    68    69   ar
    26    42    45    1
    27    37    36    1
    28    52    51    1
    29    52    55    1
    30    55    56    1
    31    74    75    1
    32    84    81    1
    33    56    57    1
    34    67    69   ar
    35    45    46    1
    36    59    57   ar
    37    36    28   am
    38    80    81    1
    39    57    58   ar
    40    75    76   ar
    41    75    77   ar
    42    81    82    1
    43    46    48   ar
    44    46    47   ar
    45    29    28    2
    46    48    50   ar
    47    76    78   ar
    48    77    79   ar
    49    28    27    1
    50    47    49   ar
    51    34    32   ar
    52    34    35   ar
    53    50    49   ar
    54    32    31   ar
    55    78    79   ar
    56    82    83    2
    57    82    88   am
    58    35    33   ar
    59    27    26    1
    60    27    30    1
    61    88    89    1
    62    98    97   ar
    63    98    96   ar
    64    31    33   ar
    65    31    30    1
    66    97    95   ar
    67    24    23    2
    68    96    94   ar
    69    25    22    1
    70    26    23   am
    71    23    22    1
    72    95    93   ar
    73    94    93   ar
    74    93    92    1
    75    22    21    1
    76    89    92    1
    77    89    90    1
    78    91    90    2
    79    90    99   am
    80    21    15   am
    81    16    15    2
    82    99   105    1
    83    99   100    1
    84    15    14    1
    85    20    18    1
    86   105   104    1
    87   100   101    1
    88   100   103    1
    89   101   102    2
    90    14    17    1
    91    14    13    1
    92    18    17    1
    93    18    19    1
    94    12    10    1
    95    13     7   am
    96   104   103    1
    97    10    11    1
    98    10     9    1
    99     7     8    2
   100     7     6    1
   101     6     9    1
   102     6     5    1
   103     5     3   am
   104     4     3    2
   105     3     2    1
   106     2     1    1
