@<TRIPOS>MOLECULE
tmp/1eubA02.pdb
 108 107 0 0 0
SMALL
GASTEIGER

@<TRIPOS>ATOM
      1  N          0.2270   -1.6960    5.0970 N.3    80  GLY80      -0.1210
      2  CA         1.0540   -2.0390    3.9070 C.3    80  GLY80       0.1956
      3  C          0.1800   -2.1650    2.6680 C.2    80  GLY80       0.2612
      4  O         -0.1010   -3.2540    2.2080 O.2    80  GLY80      -0.2717
      5  N         -0.2430   -1.0690    2.1160 N.am   81  LEU81      -0.1965
      6  CA        -1.0950   -1.1430    0.9030 C.3    81  LEU81       0.1728
      7  C         -1.4710    0.2620    0.4410 C.2    81  LEU81       0.2616
      8  O         -2.4740    0.8050    0.8490 O.2    81  LEU81      -0.2715
      9  CB        -2.3400   -1.9010    1.3590 C.3    81  LEU81       0.0311
     10  CG        -2.9960   -2.5880    0.1620 C.3    81  LEU81       0.0022
     11  CD1       -3.7950   -3.8000    0.6420 C.3    81  LEU81       0.0001
     12  CD2       -3.9350   -1.6070   -0.5390 C.3    81  LEU81       0.0001
     13  N         -0.6770    0.8690   -0.3960 N.am   82  LEU82      -0.1963
     14  CA        -1.0300    2.2450   -0.8490 C.3    82  LEU82       0.1728
     15  C         -1.5400    2.2480   -2.2960 C.2    82  LEU82       0.2616
     16  O         -2.2230    3.1670   -2.7020 O.2    82  LEU82      -0.2715
     17  CB         0.2540    3.0640   -0.7280 C.3    82  LEU82       0.0311
     18  CG        -0.0880    4.5510   -0.8390 C.3    82  LEU82       0.0022
     19  CD1        0.5450    5.3060    0.3300 C.3    82  LEU82       0.0001
     20  CD2        0.4640    5.1000   -2.1580 C.3    82  LEU82       0.0001
     21  N         -1.2280    1.2530   -3.0870 N.am   83  ALA83      -0.1977
     22  CA        -1.7230    1.2720   -4.5000 C.3    83  ALA83       0.1597
     23  C         -1.8840   -0.1420   -5.0790 C.2    83  ALA83       0.2287
     24  O         -0.9200   -0.8250   -5.3750 O.2    83  ALA83      -0.2864
     25  CB        -0.6580    2.0510   -5.2750 C.3    83  ALA83       0.0319
     26  N          3.3760   10.6100   -0.4550 N.3   111  TYR111     -0.1241
     27  CA         3.6380    9.9200   -1.7490 C.3   111  TYR111      0.1605
     28  C          3.3720   10.8750   -2.9140 C.2   111  TYR111      0.2264
     29  O          2.3120   11.4580   -3.0180 O.2   111  TYR111     -0.2867
     30  CB         2.6490    8.7550   -1.7920 C.3   111  TYR111      0.0534
     31  CG         2.8890    7.8380   -0.6180 C.ar  111  TYR111     -0.0201
     32  CD1        2.2850    8.1100    0.6150 C.ar  111  TYR111     -0.0009
     33  CD2        3.7080    6.7130   -0.7640 C.ar  111  TYR111     -0.0009
     34  CE1        2.4990    7.2560    1.7020 C.ar  111  TYR111      0.0417
     35  CE2        3.9250    5.8580    0.3230 C.ar  111  TYR111      0.0417
     36  CZ         3.3180    6.1300    1.5570 C.ar  111  TYR111      0.1957
     37  OH         3.5230    5.2890    2.6290 O.3   111  TYR111     -0.2866
     38  N          5.5440    9.4290   -8.3560 N.3   115  LEU115     -0.1231
     39  CA         6.1230    8.1510   -7.8550 C.3   115  LEU115      0.1693
     40  C          5.0270    7.1040   -7.6400 C.2   115  LEU115      0.2591
     41  O          4.9210    6.1500   -8.3850 O.2   115  LEU115     -0.2718
     42  CB         6.7630    8.5590   -6.5310 C.3   115  LEU115      0.0284
     43  CG         7.1100    7.3260   -5.7040 C.3   115  LEU115      0.0019
     44  CD1        8.4070    6.7020   -6.2260 C.3   115  LEU115      0.0001
     45  CD2        7.2960    7.7490   -4.2480 C.3   115  LEU115      0.0001
     46  N          4.2140    7.2610   -6.6310 N.am  116  VAL116     -0.1980
     47  CA         3.1390    6.2530   -6.3910 C.3   116  VAL116      0.1595
     48  C          2.4110    5.9340   -7.6990 C.2   116  VAL116      0.2287
     49  O          2.4030    4.8170   -8.1540 O.2   116  VAL116     -0.2864
     50  CB         2.1850    6.8910   -5.3740 C.3   116  VAL116      0.0276
     51  CG1        1.9750    8.3760   -5.6840 C.3   116  VAL116      0.0022
     52  CG2        0.8340    6.1650   -5.4090 C.3   116  VAL116      0.0022
     53  N          4.2340    4.1980  -10.2450 N.3   119  HIS119     -0.1241
     54  CA         4.4460    2.8210   -9.7290 C.3   119  HIS119      0.1621
     55  C          3.1690    1.9930   -9.9120 C.2   119  HIS119      0.2264
     56  O          3.1860    0.9180  -10.4830 O.2   119  HIS119     -0.2867
     57  CB         4.7730    3.0440   -8.2590 C.3   119  HIS119      0.0745
     58  CG         5.0960    1.7350   -7.6210 C.ar  119  HIS119      0.0817
     59  ND1        6.2770    1.5370   -6.9420 N.ar  119  HIS119     -0.2268
     60  CD2        4.4180    0.5450   -7.5610 C.ar  119  HIS119      0.1154
     61  CE1        6.2820    0.2750   -6.5030 C.ar  119  HIS119      0.1986
     62  NE2        5.1710   -0.3810   -6.8510 N.ar  119  HIS119     -0.2212
     63  N         10.8760    0.6140   -9.5210 N.3   136  LEU136     -0.1245
     64  CA         9.7080    1.3330   -8.9360 C.3   136  LEU136      0.1561
     65  C          8.5510    0.3370   -8.7930 C.2   136  LEU136      0.2260
     66  O          7.4880    0.5010   -9.3560 O.2   136  LEU136     -0.2867
     67  CB         9.3920    2.4410   -9.9570 C.3   136  LEU136      0.0270
     68  CG         8.0310    3.0890   -9.6680 C.3   136  LEU136      0.0019
     69  CD1        8.2260    4.4950   -9.0950 C.3   136  LEU136      0.0001
     70  CD2        7.2420    3.1960  -10.9740 C.3   136  LEU136      0.0001
     71  N          8.8320   -2.3570   -5.8070 N.3   138  PHE138     -0.1228
     72  CA         8.8600   -2.8640   -4.4010 C.3   138  PHE138      0.1721
     73  C          7.9590   -2.0020   -3.5080 C.2   138  PHE138      0.2437
     74  O          7.4800   -0.9680   -3.9270 O.2   138  PHE138     -0.2733
     75  CB        10.3270   -2.7870   -3.9380 C.3   138  PHE138      0.0547
     76  CG        11.0440   -1.5930   -4.5330 C.ar  138  PHE138     -0.0202
     77  CD1       10.3620   -0.3910   -4.7640 C.ar  138  PHE138     -0.0042
     78  CD2       12.4050   -1.6920   -4.8450 C.ar  138  PHE138     -0.0042
     79  CE1       11.0420    0.7080   -5.3040 C.ar  138  PHE138     -0.0003
     80  CE2       13.0850   -0.5940   -5.3850 C.ar  138  PHE138     -0.0003
     81  CZ        12.4030    0.6070   -5.6140 C.ar  138  PHE138     -0.0000
     82  N          7.7490   -2.4590   -2.2990 N.am  139  PRO139     -0.2718
     83  CA         6.8960   -1.7030   -1.3490 C.3   139  PRO139      0.1535
     84  C          7.5920   -0.4060   -0.9380 C.2   139  PRO139      0.2598
     85  O          7.0190    0.4400   -0.2810 O.2   139  PRO139     -0.2715
     86  CB         6.7480   -2.6530   -0.1630 C.3   139  PRO139      0.0310
     87  CG         7.9450   -3.5420   -0.2400 C.3   139  PRO139      0.0237
     88  CD         8.2690   -3.6960   -1.7030 C.3   139  PRO139      0.0939
     89  N          8.8260   -0.2390   -1.3320 N.am  140  ILE140     -0.1964
     90  CA         9.5610    1.0060   -0.9760 C.3   140  ILE140      0.1727
     91  C          9.5230    1.9810   -2.1590 C.2   140  ILE140      0.2616
     92  O          9.5880    1.5820   -3.3050 O.2   140  ILE140     -0.2715
     93  CB        10.9930    0.5500   -0.6700 C.3   140  ILE140      0.0290
     94  CG1       11.6850    1.6030    0.1970 C.3   140  ILE140      0.0022
     95  CG2       11.7770    0.3650   -1.9710 C.3   140  ILE140      0.0023
     96  CD1       11.5620    1.2070    1.6690 C.3   140  ILE140      0.0001
     97  N          9.4010    3.2510   -1.8910 N.am  141  TYR141     -0.1974
     98  CA         9.3370    4.2450   -3.0050 C.3   141  TYR141      0.1639
     99  C         10.2890    5.4150   -2.7590 C.2   141  TYR141      0.2290
    100  O         10.6620    6.1200   -3.6740 O.2   141  TYR141     -0.2864
    101  CB         7.9010    4.7440   -2.9900 C.3   141  TYR141      0.0560
    102  CG         7.5230    5.1830   -1.5970 C.ar  141  TYR141     -0.0198
    103  CD1        7.1800    4.2350   -0.6280 C.ar  141  TYR141     -0.0009
    104  CD2        7.5060    6.5440   -1.2810 C.ar  141  TYR141     -0.0009
    105  CE1        6.8220    4.6480    0.6610 C.ar  141  TYR141      0.0417
    106  CE2        7.1500    6.9590    0.0040 C.ar  141  TYR141      0.0417
    107  CZ         6.8060    6.0120    0.9770 C.ar  141  TYR141      0.1957
    108  OH         6.4530    6.4220    2.2470 O.3   141  TYR141     -0.2866
@<TRIPOS>BOND
     1    70    68    1
     2    56    55    2
     3    53    54    1
     4    67    68    1
     5    67    64    1
     6    55    54    1
     7    54    57    1
     8    68    69    1
     9    63    64    1
    10    66    65    2
    11    64    65    1
    12    41    40    2
    13    38    39    1
    14    57    58    1
    15    49    48    2
    16    39    40    1
    17    39    42    1
    18    48    47    1
    19    40    46   am
    20    58    60   ar
    21    58    59   ar
    22    60    62   ar
    23    59    61   ar
    24    62    61   ar
    25    46    47    1
    26    42    43    1
    27    47    50    1
    28    44    43    1
    29    71    72    1
    30    43    45    1
    31    51    50    1
    32    81    80   ar
    33    81    79   ar
    34    52    50    1
    35    80    78   ar
    36    24    23    2
    37    79    77   ar
    38    25    22    1
    39    23    22    1
    40    78    76   ar
    41    77    76   ar
    42    76    75    1
    43    22    21    1
    44    72    75    1
    45    72    73    1
    46    74    73    2
    47   100    99    2
    48    73    82   am
    49    92    91    2
    50    21    15   am
    51    29    28    2
    52    98   101    1
    53    98    99    1
    54    98    97    1
    55   101   102    1
    56    28    27    1
    57    16    15    2
    58    82    88    1
    59    82    83    1
    60    15    14    1
    61    91    97   am
    62    91    90    1
    63    20    18    1
    64    95    93    1
    65    30    27    1
    66    30    31    1
    67    27    26    1
    68    88    87    1
    69   102   104   ar
    70   102   103   ar
    71    83    84    1
    72    83    86    1
    73    89    90    1
    74    89    84   am
    75   104   106   ar
    76    90    93    1
    77    84    85    2
    78    14    17    1
    79    14    13    1
    80    18    17    1
    81    18    19    1
    82    33    31   ar
    83    33    35   ar
    84    93    94    1
    85   103   105   ar
    86    31    32   ar
    87    12    10    1
    88    13     7   am
    89    87    86    1
    90   106   107   ar
    91    10    11    1
    92    10     9    1
    93    94    96    1
    94    35    36   ar
    95     7     8    2
    96     7     6    1
    97    32    34   ar
    98   105   107   ar
    99     6     9    1
   100     6     5    1
   101   107   108    1
   102    36    34   ar
   103    36    37    1
   104     5     3   am
   105     4     3    2
   106     3     2    1
   107     2     1    1
