@<TRIPOS>MOLECULE
tmp/1eupA01.pdb
 138 129 0 0 0
SMALL
GASTEIGER

@<TRIPOS>ATOM
      1  N        -21.7240    5.5450   15.4110 N.3    73  ALA73      -0.1231
      2  CA       -20.4770    5.5150   16.1710 C.3    73  ALA73       0.1694
      3  C        -20.6500    5.5860   17.6900 C.2    73  ALA73       0.2592
      4  O        -19.7570    5.1850   18.4440 O.2    73  ALA73      -0.2718
      5  CB       -19.5600    6.6480   15.7060 C.3    73  ALA73       0.0304
      6  N        -21.7960    6.0820   18.1360 N.am   74  TYR74      -0.1976
      7  CA       -22.0530    6.2410   19.5590 C.3    74  TYR74       0.1639
      8  C        -22.9310    5.1740   20.2160 C.2    74  TYR74       0.2290
      9  O        -23.5930    5.4390   21.2260 O.2    74  TYR74      -0.2864
     10  CB       -22.6100    7.6470   19.8090 C.3    74  TYR74       0.0560
     11  CG       -21.7100    8.7380   19.2680 C.ar   74  TYR74      -0.0198
     12  CD1      -21.9690    9.3330   18.0340 C.ar   74  TYR74      -0.0009
     13  CD2      -20.5620    9.1230   19.9560 C.ar   74  TYR74      -0.0009
     14  CE1      -21.1020   10.2740   17.4950 C.ar   74  TYR74       0.0417
     15  CE2      -19.6930   10.0600   19.4290 C.ar   74  TYR74       0.0417
     16  CZ       -19.9640   10.6290   18.1940 C.ar   74  TYR74       0.1957
     17  OH       -19.0660   11.5130   17.6470 O.3    74  TYR74      -0.2866
     18  N        -16.6960   12.8770   23.5350 N.3    85  PHE85      -0.1241
     19  CA       -16.1740   12.3960   22.2580 C.3    85  PHE85       0.1605
     20  C        -16.6070   13.3240   21.1270 C.2    85  PHE85       0.2264
     21  O        -15.9440   13.4020   20.1000 O.2    85  PHE85      -0.2867
     22  CB       -16.7260   11.0010   21.9350 C.3    85  PHE85       0.0534
     23  CG       -15.9430    9.8640   22.5370 C.ar   85  PHE85      -0.0203
     24  CD1      -15.1680    9.0430   21.7260 C.ar   85  PHE85      -0.0042
     25  CD2      -16.0160    9.5820   23.8990 C.ar   85  PHE85      -0.0042
     26  CE1      -14.4780    7.9510   22.2570 C.ar   85  PHE85      -0.0003
     27  CE2      -15.3310    8.4930   24.4420 C.ar   85  PHE85      -0.0003
     28  CZ       -14.5610    7.6760   23.6200 C.ar   85  PHE85      -0.0000
     29  N        -15.4330   18.4770   19.2990 N.3    88  ASN88      -0.1240
     30  CA       -14.1830   18.7730   18.6090 C.3    88  ASN88       0.1653
     31  C        -14.4510   19.0440   17.1360 C.2    88  ASN88       0.2266
     32  O        -15.5930   18.9430   16.6830 O.2    88  ASN88      -0.2867
     33  CB       -13.1970   17.6070   18.7670 C.3    88  ASN88       0.1155
     34  CG       -13.8290   16.2540   18.4770 C.2    88  ASN88       0.2627
     35  OD1      -13.9040   15.3990   19.3500 O.2    88  ASN88      -0.2716
     36  ND2      -14.2740   16.0550   17.2470 N.am   88  ASN88      -0.0877
     37  N        -14.1440   17.4190   14.1920 N.3    90  GLY90      -0.1210
     38  CA       -14.9260   16.4380   13.4610 C.3    90  GLY90       0.1956
     39  C        -16.3610   16.2670   13.8830 C.2    90  GLY90       0.2612
     40  O        -17.1250   15.5650   13.2180 O.2    90  GLY90      -0.2717
     41  N        -16.7290   16.8820   15.0000 N.am   91  THR91      -0.1952
     42  CA       -18.0860   16.7790   15.5100 C.3    91  THR91       0.1897
     43  C        -18.7630   18.1470   15.6170 C.2    91  THR91       0.2313
     44  O        -19.7100   18.3160   16.3670 O.2    91  THR91      -0.2863
     45  CB       -18.0840   16.0570   16.8860 C.3    91  THR91       0.1794
     46  OG1      -16.9380   16.4680   17.6410 O.3    91  THR91      -0.2208
     47  CG2      -18.0220   14.5540   16.6990 C.3    91  THR91       0.0378
     48  N         -9.8250   13.0200   20.6230 N.3   236  VAL236     -0.1245
     49  CA        -9.8270   12.6930   19.2000 C.3   236  VAL236      0.1561
     50  C         -8.4200   12.6470   18.5940 C.2   236  VAL236      0.2260
     51  O         -8.1330   11.7760   17.7720 O.2   236  VAL236     -0.2867
     52  CB       -10.7350   13.6540   18.3840 C.3   236  VAL236      0.0252
     53  CG1      -10.1330   15.0450   18.3150 C.3   236  VAL236      0.0019
     54  CG2      -10.9650   13.0980   16.9940 C.3   236  VAL236      0.0019
     55  N         -6.8920    9.2490   19.8150 N.3   239  LEU239     -0.1231
     56  CA        -7.5260    8.1290   19.1340 C.3   239  LEU239      0.1693
     57  C         -7.3090    8.1300   17.6160 C.2   239  LEU239      0.2591
     58  O         -6.7700    7.1660   17.0570 O.2   239  LEU239     -0.2718
     59  CB        -9.0230    8.0870   19.4860 C.3   239  LEU239      0.0284
     60  CG        -9.4750    7.1360   20.6120 C.3   239  LEU239      0.0019
     61  CD1       -8.6000    7.2730   21.8310 C.3   239  LEU239      0.0001
     62  CD2      -10.9340    7.3670   20.9650 C.3   239  LEU239      0.0001
     63  N         -7.7110    9.2030   16.9440 N.am  240  ALA240     -0.1980
     64  CA        -7.5370    9.2880   15.4960 C.3   240  ALA240      0.1597
     65  C         -6.0490    9.3610   15.1450 C.2   240  ALA240      0.2287
     66  O         -5.6440    8.9940   14.0430 O.2   240  ALA240     -0.2864
     67  CB        -8.2640   10.4910   14.9480 C.3   240  ALA240      0.0319
     68  N         -4.9810    4.9880   15.4580 N.3   243  GLU243     -0.1231
     69  CA        -5.7930    3.8930   14.9180 C.3   243  GLU243      0.1699
     70  C         -5.7740    3.6920   13.4040 C.2   243  GLU243      0.2592
     71  O         -5.4670    2.5990   12.9410 O.2   243  GLU243     -0.2718
     72  CB        -7.2210    3.9600   15.4560 C.3   243  GLU243      0.0402
     73  CG        -7.9250    2.6040   15.5630 C.3   243  GLU243      0.1161
     74  CD        -7.2080    1.5860   16.4570 C.2   243  GLU243      0.3649
     75  OE1       -6.6600    0.6080   15.9170 O.co2 243  GLU243     -0.2457
     76  OE2       -7.2210    1.7390   17.6960 O.co2 243  GLU243     -0.2457
     77  N         -6.0540    4.7320   12.6280 N.am  244  ALA244     -0.1980
     78  CA        -6.0380    4.5760   11.1800 C.3   244  ALA244      0.1597
     79  C         -4.6230    4.3260   10.6700 C.2   244  ALA244      0.2287
     80  O         -4.4430    3.6940    9.6360 O.2   244  ALA244     -0.2864
     81  CB        -6.6400    5.7970   10.4960 C.3   244  ALA244      0.0319
     82  N        -11.2510    4.4470    6.8340 N.3   287  PRO287     -0.2116
     83  CA       -12.5700    4.9780    7.1990 C.3   287  PRO287      0.1372
     84  C        -13.5410    4.7010    6.0450 C.2   287  PRO287      0.2244
     85  O        -13.8980    5.5910    5.2790 O.2   287  PRO287     -0.2868
     86  CB       -12.3060    6.4850    7.3470 C.3   287  PRO287      0.0268
     87  CG       -10.8120    6.6100    7.4180 C.3   287  PRO287      0.0207
     88  CD       -10.3480    5.5530    6.4790 C.3   287  PRO287      0.0892
     89  N        -18.3680    7.3220    6.3930 N.3   290  THR290     -0.1218
     90  CA       -18.3790    8.6070    7.0880 C.3   290  THR290      0.1862
     91  C        -19.8620    8.9320    7.3420 C.2   290  THR290      0.2287
     92  O        -20.7090    8.6470    6.4940 O.2   290  THR290     -0.2866
     93  CB       -17.7320    9.7020    6.2180 C.3   290  THR290      0.1770
     94  OG1      -16.3320    9.4380    6.0890 O.3   290  THR290     -0.2211
     95  CG2      -17.8990   11.0460    6.8480 C.3   290  THR290      0.0375
     96  N        -23.1400   11.5230    8.2780 N.3   292  ARG292     -0.1245
     97  CA       -23.6920   12.8650    8.1790 C.3   292  ARG292      0.1563
     98  C        -25.1550   12.7810    8.5920 C.2   292  ARG292      0.2260
     99  O        -25.7510   11.6990    8.5660 O.2   292  ARG292     -0.2867
    100  CB       -23.6080   13.3680    6.7350 C.3   292  ARG292      0.0307
    101  CG       -22.2070   13.7000    6.2580 C.3   292  ARG292      0.0489
    102  CD       -21.5810   14.7320    7.1510 C.3   292  ARG292      0.2205
    103  NE       -20.2640   15.1420    6.6880 N.pl3 292  ARG292     -0.0865
    104  CZ       -19.1240   14.5800    7.0750 C.cat 292  ARG292      0.5346
    105  NH1      -19.1260   13.5660    7.9390 N.pl3 292  ARG292      0.1354
    106  NH2      -17.9730   15.0390    6.5980 N.pl3 292  ARG292      0.1354
    107  N        -13.9610   19.2510    6.5140 N.3   348  HIS348     -0.1241
    108  CA       -13.4580   18.3180    7.5150 C.3   348  HIS348      0.1621
    109  C        -12.2720   17.4890    7.0420 C.2   348  HIS348      0.2264
    110  O        -11.9640   16.4570    7.6380 O.2   348  HIS348     -0.2867
    111  CB       -14.5790   17.4080    8.0380 C.3   348  HIS348      0.0745
    112  CG       -15.6370   18.1340    8.8170 C.ar  348  HIS348      0.0817
    113  ND1      -15.4340   18.6150   10.0930 N.ar  348  HIS348     -0.2268
    114  CD2      -16.8980   18.4890    8.4820 C.ar  348  HIS348      0.1154
    115  CE1      -16.5160   19.2380   10.5110 C.ar  348  HIS348      0.1986
    116  NE2      -17.4230   19.1760    9.5530 N.ar  348  HIS348     -0.2212
    117  N         -8.9320   15.6870    6.5060 N.3   350  CYS350     -0.1235
    118  CA        -8.0020   15.1950    7.5170 C.3   350  CYS350      0.1677
    119  C         -6.8300   16.1000    7.8840 C.2   350  CYS350      0.2270
    120  O         -5.9090   16.3000    7.0930 O.2   350  CYS350     -0.2867
    121  CB        -7.4880   13.8100    7.1120 C.3   350  CYS350      0.0956
    122  SG        -6.4530   13.0100    8.3650 S.3   350  CYS350     -0.0801
    123  N        -16.8140    1.4750   10.3360 N.3   390  LEU390     -0.1231
    124  CA       -16.2620    2.6980   10.8890 C.3   390  LEU390      0.1693
    125  C        -14.7700    2.7970   10.6170 C.2   390  LEU390      0.2591
    126  O        -14.2680    3.8680   10.2860 O.2   390  LEU390     -0.2718
    127  CB       -16.5060    2.7430   12.3970 C.3   390  LEU390      0.0284
    128  CG       -16.3980    4.0880   13.1230 C.3   390  LEU390      0.0019
    129  CD1      -17.7010    4.8570   12.9090 C.3   390  LEU390      0.0001
    130  CD2      -16.1460    3.8810   14.6280 C.3   390  LEU390      0.0001
    131  N        -14.0590    1.6840   10.7580 N.am  391  LEU391     -0.1980
    132  CA       -12.6200    1.6780   10.5370 C.3   391  LEU391      0.1596
    133  C        -12.0970    0.2740   10.2390 C.2   391  LEU391      0.2287
    134  O        -12.0650   -0.5790   11.1290 O.2   391  LEU391     -0.2864
    135  CB       -11.9020    2.2450   11.7660 C.3   391  LEU391      0.0297
    136  CG       -10.4150    2.5580   11.5890 C.3   391  LEU391      0.0022
    137  CD1      -10.2360    3.6390   10.5350 C.3   391  LEU391      0.0001
    138  CD2       -9.8370    3.0300   12.8910 C.3   391  LEU391      0.0001
@<TRIPOS>BOND
     1    85    84    2
     2    84    83    1
     3    94    93    1
     4    93    95    1
     5    93    90    1
     6   101   100    1
     7   101   102    1
     8    89    90    1
     9    88    82    1
    10    88    87    1
    11    92    91    2
    12   117   118    1
    13   107   108    1
    14   106   104    1
    15   103   104    2
    16   103   102    1
    17   100    97    1
    18    82    83    1
    19   109   108    1
    20   109   110    2
    21   104   105    1
    22    90    91    1
    23   120   119    2
    24   121   118    1
    25   121   122    1
    26    83    86    1
    27    86    87    1
    28   108   111    1
    29   118   119    1
    30   111   112    1
    31    97    96    1
    32    97    98    1
    33   114   112   ar
    34   114   116   ar
    35    99    98    2
    36   112   113   ar
    37   116   115   ar
    38    80    79    2
    39   113   115   ar
    40   133   132    1
    41   133   134    2
    42   126   125    2
    43   123   124    1
    44    81    78    1
    45   137   136    1
    46   132   131    1
    47   132   135    1
    48   125   131   am
    49   125   124    1
    50    79    78    1
    51   124   127    1
    52    78    77    1
    53   136   135    1
    54   136   138    1
    55   127   128    1
    56    77    70   am
    57   129   128    1
    58    71    70    2
    59   128   130    1
    60    40    39    2
    61    70    69    1
    62    38    39    1
    63    38    37    1
    64    39    41   am
    65    66    65    2
    66    69    72    1
    67    69    68    1
    68    67    64    1
    69    41    42    1
    70    65    64    1
    71     1     2    1
    72    72    73    1
    73    64    63    1
    74    42    43    1
    75    42    45    1
    76    73    74    1
    77    43    44    2
    78     5     2    1
    79    75    74   ar
    80     2     3    1
    81    74    76   ar
    82    32    31    2
    83    47    45    1
    84    45    46    1
    85    63    57   am
    86    54    52    1
    87    58    57    2
    88    31    30    1
    89    36    34   am
    90    14    12   ar
    91    14    16   ar
    92    57    56    1
    93    17    16    1
    94     3     6   am
    95     3     4    2
    96    51    50    2
    97    12    11   ar
    98     6     7    1
    99    16    15   ar
   100    53    52    1
   101    52    49    1
   102    34    33    1
   103    34    35    2
   104    50    49    1
   105    30    33    1
   106    30    29    1
   107    56    59    1
   108    56    55    1
   109    49    48    1
   110    11    10    1
   111    11    13   ar
   112    15    13   ar
   113    59    60    1
   114     7    10    1
   115     7     8    1
   116    21    20    2
   117     8     9    2
   118    60    62    1
   119    60    61    1
   120    20    19    1
   121    24    26   ar
   122    24    23   ar
   123    22    19    1
   124    22    23    1
   125    26    28   ar
   126    19    18    1
   127    23    25   ar
   128    28    27   ar
   129    25    27   ar
