@<TRIPOS>MOLECULE
tmp/1eupA02.pdb
 140 133 0 0 0
SMALL
GASTEIGER

@<TRIPOS>ATOM
      1  N        -21.7240    5.5450   15.4110 N.3    73  ALA73      -0.1231
      2  CA       -20.4770    5.5150   16.1710 C.3    73  ALA73       0.1694
      3  C        -20.6500    5.5860   17.6900 C.2    73  ALA73       0.2592
      4  O        -19.7570    5.1850   18.4440 O.2    73  ALA73      -0.2718
      5  CB       -19.5600    6.6480   15.7060 C.3    73  ALA73       0.0304
      6  N        -21.7960    6.0820   18.1360 N.am   74  TYR74      -0.1976
      7  CA       -22.0530    6.2410   19.5590 C.3    74  TYR74       0.1639
      8  C        -22.9310    5.1740   20.2160 C.2    74  TYR74       0.2290
      9  O        -23.5930    5.4390   21.2260 O.2    74  TYR74      -0.2864
     10  CB       -22.6100    7.6470   19.8090 C.3    74  TYR74       0.0560
     11  CG       -21.7100    8.7380   19.2680 C.ar   74  TYR74      -0.0198
     12  CD1      -21.9690    9.3330   18.0340 C.ar   74  TYR74      -0.0009
     13  CD2      -20.5620    9.1230   19.9560 C.ar   74  TYR74      -0.0009
     14  CE1      -21.1020   10.2740   17.4950 C.ar   74  TYR74       0.0417
     15  CE2      -19.6930   10.0600   19.4290 C.ar   74  TYR74       0.0417
     16  CZ       -19.9640   10.6290   18.1940 C.ar   74  TYR74       0.1957
     17  OH       -19.0660   11.5130   17.6470 O.3    74  TYR74      -0.2866
     18  N        -22.9170    4.5540   24.2010 N.3    77  PHE77      -0.1241
     19  CA       -22.2420    5.6200   24.9390 C.3    77  PHE77       0.1605
     20  C        -23.2280    6.3970   25.8040 C.2    77  PHE77       0.2264
     21  O        -24.3030    6.7820   25.3350 O.2    77  PHE77      -0.2867
     22  CB       -21.5920    6.6430   23.9900 C.3    77  PHE77       0.0534
     23  CG       -20.3290    6.1710   23.3170 C.ar   77  PHE77      -0.0203
     24  CD1      -20.0690    4.8190   23.1260 C.ar   77  PHE77      -0.0042
     25  CD2      -19.4170    7.1010   22.8320 C.ar   77  PHE77      -0.0042
     26  CE1      -18.9240    4.4050   22.4560 C.ar   77  PHE77      -0.0003
     27  CE2      -18.2680    6.6940   22.1590 C.ar   77  PHE77      -0.0003
     28  CZ       -18.0190    5.3490   21.9710 C.ar   77  PHE77      -0.0000
     29  N        -16.6960   12.8770   23.5350 N.3    85  PHE85      -0.1241
     30  CA       -16.1740   12.3960   22.2580 C.3    85  PHE85       0.1605
     31  C        -16.6070   13.3240   21.1270 C.2    85  PHE85       0.2264
     32  O        -15.9440   13.4020   20.1000 O.2    85  PHE85      -0.2867
     33  CB       -16.7260   11.0010   21.9350 C.3    85  PHE85       0.0534
     34  CG       -15.9430    9.8640   22.5370 C.ar   85  PHE85      -0.0203
     35  CD1      -15.1680    9.0430   21.7260 C.ar   85  PHE85      -0.0042
     36  CD2      -16.0160    9.5820   23.8990 C.ar   85  PHE85      -0.0042
     37  CE1      -14.4780    7.9510   22.2570 C.ar   85  PHE85      -0.0003
     38  CE2      -15.3310    8.4930   24.4420 C.ar   85  PHE85      -0.0003
     39  CZ       -14.5610    7.6760   23.6200 C.ar   85  PHE85      -0.0000
     40  N        -15.4330   18.4770   19.2990 N.3    88  ASN88      -0.1240
     41  CA       -14.1830   18.7730   18.6090 C.3    88  ASN88       0.1653
     42  C        -14.4510   19.0440   17.1360 C.2    88  ASN88       0.2266
     43  O        -15.5930   18.9430   16.6830 O.2    88  ASN88      -0.2867
     44  CB       -13.1970   17.6070   18.7670 C.3    88  ASN88       0.1155
     45  CG       -13.8290   16.2540   18.4770 C.2    88  ASN88       0.2627
     46  OD1      -13.9040   15.3990   19.3500 O.2    88  ASN88      -0.2716
     47  ND2      -14.2740   16.0550   17.2470 N.am   88  ASN88      -0.0877
     48  N        -16.7290   16.8820   15.0000 N.3    91  THR91      -0.1218
     49  CA       -18.0860   16.7790   15.5100 C.3    91  THR91       0.1862
     50  C        -18.7630   18.1470   15.6170 C.2    91  THR91       0.2287
     51  O        -19.7100   18.3160   16.3670 O.2    91  THR91      -0.2866
     52  CB       -18.0840   16.0570   16.8860 C.3    91  THR91       0.1770
     53  OG1      -16.9380   16.4680   17.6410 O.3    91  THR91      -0.2211
     54  CG2      -18.0220   14.5540   16.6990 C.3    91  THR91       0.0375
     55  N         -9.7190    1.0560   22.7750 N.3   170  SER170     -0.1217
     56  CA        -9.7900    1.3770   21.3560 C.3   170  SER170      0.1889
     57  C        -10.3400    0.1810   20.5820 C.2   170  SER170      0.2288
     58  O        -11.1980    0.3270   19.7040 O.2   170  SER170     -0.2866
     59  CB        -8.3870    1.7030   20.8490 C.3   170  SER170      0.2089
     60  OG        -7.9910    3.0050   21.2420 O.3   170  SER170     -0.2183
     61  N        -14.2150   -0.0790   21.1870 N.3   173  ILE173     -0.1231
     62  CA       -14.9710    1.0140   20.5710 C.3   173  ILE173      0.1692
     63  C        -15.0020    0.9470   19.0400 C.2   173  ILE173      0.2591
     64  O        -15.9230    1.4640   18.4090 O.2   173  ILE173     -0.2718
     65  CB       -14.4320    2.3960   21.0480 C.3   173  ILE173      0.0266
     66  CG1      -14.6070    2.5290   22.5590 C.3   173  ILE173      0.0019
     67  CG2      -15.1910    3.5320   20.4100 C.3   173  ILE173      0.0020
     68  CD1      -14.0360    3.8110   23.1310 C.3   173  ILE173      0.0001
     69  N        -14.0180    0.2830   18.4470 N.am  174  LEU174     -0.1980
     70  CA       -13.9420    0.1640   16.9930 C.3   174  LEU174      0.1596
     71  C        -15.0860   -0.6010   16.3370 C.2   174  LEU174      0.2287
     72  O        -15.3170   -0.4570   15.1390 O.2   174  LEU174     -0.2864
     73  CB       -12.6300   -0.5060   16.5880 C.3   174  LEU174      0.0297
     74  CG       -11.3780    0.3550   16.5360 C.3   174  LEU174      0.0022
     75  CD1      -10.1650   -0.5070   16.2340 C.3   174  LEU174      0.0001
     76  CD2      -11.5690    1.4020   15.4690 C.3   174  LEU174      0.0001
     77  N         -8.8240   13.9600   23.1520 N.3   235  LEU235     -0.1231
     78  CA        -9.3720   12.6220   22.9800 C.3   235  LEU235      0.1693
     79  C         -9.3220   12.1810   21.5230 C.2   235  LEU235      0.2591
     80  O         -8.8210   11.1010   21.2190 O.2   235  LEU235     -0.2718
     81  CB       -10.8150   12.5750   23.4970 C.3   235  LEU235      0.0284
     82  CG       -11.5730   11.2410   23.5220 C.3   235  LEU235      0.0019
     83  CD1      -12.5350   11.2340   24.6930 C.3   235  LEU235      0.0001
     84  CD2      -12.3130   10.9960   22.1980 C.3   235  LEU235      0.0001
     85  N         -9.8250   13.0200   20.6230 N.am  236  VAL236     -0.1980
     86  CA        -9.8270   12.6930   19.2000 C.3   236  VAL236      0.1595
     87  C         -8.4200   12.6470   18.5940 C.2   236  VAL236      0.2287
     88  O         -8.1330   11.7760   17.7720 O.2   236  VAL236     -0.2864
     89  CB       -10.7350   13.6540   18.3840 C.3   236  VAL236      0.0276
     90  CG1      -10.1330   15.0450   18.3150 C.3   236  VAL236      0.0022
     91  CG2      -10.9650   13.0980   16.9940 C.3   236  VAL236      0.0022
     92  N         -6.8920    9.2490   19.8150 N.3   239  LEU239     -0.1231
     93  CA        -7.5260    8.1290   19.1340 C.3   239  LEU239      0.1693
     94  C         -7.3090    8.1300   17.6160 C.2   239  LEU239      0.2591
     95  O         -6.7700    7.1660   17.0570 O.2   239  LEU239     -0.2718
     96  CB        -9.0230    8.0870   19.4860 C.3   239  LEU239      0.0284
     97  CG        -9.4750    7.1360   20.6120 C.3   239  LEU239      0.0019
     98  CD1       -8.6000    7.2730   21.8310 C.3   239  LEU239      0.0001
     99  CD2      -10.9340    7.3670   20.9650 C.3   239  LEU239      0.0001
    100  N         -7.7110    9.2030   16.9440 N.am  240  ALA240     -0.1980
    101  CA        -7.5370    9.2880   15.4960 C.3   240  ALA240      0.1597
    102  C         -6.0490    9.3610   15.1450 C.2   240  ALA240      0.2287
    103  O         -5.6440    8.9940   14.0430 O.2   240  ALA240     -0.2864
    104  CB        -8.2640   10.4910   14.9480 C.3   240  ALA240      0.0319
    105  N         -3.6110    7.4680   16.0750 N.3   242  PHE242     -0.1227
    106  CA        -2.9080    6.1990   15.8700 C.3   242  PHE242      0.1736
    107  C         -3.6750    5.0710   15.2080 C.2   242  PHE242      0.2595
    108  O         -3.0840    4.2970   14.4540 O.2   242  PHE242     -0.2718
    109  CB        -2.2860    5.6710   17.1800 C.3   242  PHE242      0.0547
    110  CG        -3.2580    4.9530   18.0950 C.ar  242  PHE242     -0.0202
    111  CD1       -3.9310    5.6410   19.0920 C.ar  242  PHE242     -0.0042
    112  CD2       -3.4710    3.5850   17.9760 C.ar  242  PHE242     -0.0042
    113  CE1       -4.7970    4.9830   19.9520 C.ar  242  PHE242     -0.0003
    114  CE2       -4.3360    2.9190   18.8300 C.ar  242  PHE242     -0.0003
    115  CZ        -4.9990    3.6220   19.8190 C.ar  242  PHE242     -0.0000
    116  N         -4.9810    4.9880   15.4580 N.am  243  GLU243     -0.1979
    117  CA        -5.7930    3.8930   14.9180 C.3   243  GLU243      0.1602
    118  C         -5.7740    3.6920   13.4040 C.2   243  GLU243      0.2287
    119  O         -5.4670    2.5990   12.9410 O.2   243  GLU243     -0.2864
    120  CB        -7.2210    3.9600   15.4560 C.3   243  GLU243      0.0415
    121  CG        -7.9250    2.6040   15.5630 C.3   243  GLU243      0.1163
    122  CD        -7.2080    1.5860   16.4570 C.2   243  GLU243      0.3649
    123  OE1       -6.6600    0.6080   15.9170 O.co2 243  GLU243     -0.2457
    124  OE2       -7.2210    1.7390   17.6960 O.co2 243  GLU243     -0.2457
    125  N        -16.8140    1.4750   10.3360 N.3   390  LEU390     -0.1231
    126  CA       -16.2620    2.6980   10.8890 C.3   390  LEU390      0.1693
    127  C        -14.7700    2.7970   10.6170 C.2   390  LEU390      0.2591
    128  O        -14.2680    3.8680   10.2860 O.2   390  LEU390     -0.2718
    129  CB       -16.5060    2.7430   12.3970 C.3   390  LEU390      0.0284
    130  CG       -16.3980    4.0880   13.1230 C.3   390  LEU390      0.0019
    131  CD1      -17.7010    4.8570   12.9090 C.3   390  LEU390      0.0001
    132  CD2      -16.1460    3.8810   14.6280 C.3   390  LEU390      0.0001
    133  N        -14.0590    1.6840   10.7580 N.am  391  LEU391     -0.1980
    134  CA       -12.6200    1.6780   10.5370 C.3   391  LEU391      0.1596
    135  C        -12.0970    0.2740   10.2390 C.2   391  LEU391      0.2287
    136  O        -12.0650   -0.5790   11.1290 O.2   391  LEU391     -0.2864
    137  CB       -11.9020    2.2450   11.7660 C.3   391  LEU391      0.0297
    138  CG       -10.4150    2.5580   11.5890 C.3   391  LEU391      0.0022
    139  CD1      -10.2360    3.6390   10.5350 C.3   391  LEU391      0.0001
    140  CD2       -9.8370    3.0300   12.8910 C.3   391  LEU391      0.0001
@<TRIPOS>BOND
     1   135   134    1
     2   135   136    2
     3   128   127    2
     4   125   126    1
     5   139   138    1
     6   134   133    1
     7   134   137    1
     8   127   133   am
     9   127   126    1
    10   126   129    1
    11   138   137    1
    12   138   140    1
    13   129   130    1
    14   131   130    1
    15   119   118    2
    16   130   132    1
    17   118   117    1
    18   103   102    2
    19   108   107    2
    20   117   120    1
    21   117   116    1
    22   104   101    1
    23    48    49    1
    24    72    71    2
    25   102   101    1
    26   107   116   am
    27   107   106    1
    28     1     2    1
    29   120   121    1
    30    76    74    1
    31   101   100    1
    32    49    50    1
    33    49    52    1
    34   121   122    1
    35    50    51    2
    36     5     2    1
    37   106   105    1
    38   106   109    1
    39   123   122   ar
    40     2     3    1
    41    75    74    1
    42    71    70    1
    43   122   124   ar
    44    74    73    1
    45    73    70    1
    46    43    42    2
    47    54    52    1
    48    52    53    1
    49   100    94   am
    50    70    69    1
    51    91    89    1
    52    95    94    2
    53    42    41    1
    54   109   110    1
    55    47    45   am
    56    14    12   ar
    57    14    16   ar
    58    94    93    1
    59    17    16    1
    60     3     6   am
    61     3     4    2
    62    88    87    2
    63   112   110   ar
    64   112   114   ar
    65    12    11   ar
    66   110   111   ar
    67     6     7    1
    68    16    15   ar
    69    90    89    1
    70    89    86    1
    71    64    63    2
    72    69    63   am
    73    45    44    1
    74    45    46    2
    75    87    86    1
    76    41    44    1
    77    41    40    1
    78   114   115   ar
    79    63    62    1
    80   111   113   ar
    81    93    96    1
    82    93    92    1
    83    86    85    1
    84    11    10    1
    85    11    13   ar
    86    15    13   ar
    87    96    97    1
    88     7    10    1
    89     7     8    1
    90    58    57    2
    91   115   113   ar
    92    32    31    2
    93     8     9    2
    94    67    65    1
    95    62    65    1
    96    62    61    1
    97    57    56    1
    98    97    99    1
    99    97    98    1
   100    85    79   am
   101    59    60    1
   102    59    56    1
   103    65    66    1
   104    31    30    1
   105    80    79    2
   106    56    55    1
   107    79    78    1
   108    35    37   ar
   109    35    34   ar
   110    33    30    1
   111    33    34    1
   112    28    27   ar
   113    28    26   ar
   114    27    25   ar
   115    84    82    1
   116    37    39   ar
   117    30    29    1
   118    26    24   ar
   119    34    36   ar
   120    66    68    1
   121    25    23   ar
   122    78    77    1
   123    78    81    1
   124    24    23   ar
   125    23    22    1
   126    81    82    1
   127    82    83    1
   128    39    38   ar
   129    36    38   ar
   130    22    19    1
   131    18    19    1
   132    19    20    1
   133    21    20    2
