@<TRIPOS>MOLECULE
tmp/1euuA00.pdb
 93 90 0 0 0
SMALL
GASTEIGER

@<TRIPOS>ATOM
      1  N        -19.8900  -26.2360   32.1240 N.3   476  GLU476     -0.1245
      2  CA       -19.6900  -25.5320   30.8540 C.3   476  GLU476      0.1567
      3  C        -20.9590  -25.5190   30.0130 C.2   476  GLU476      0.2260
      4  O        -21.9740  -26.0810   30.4070 O.2   476  GLU476     -0.2867
      5  CB       -18.5340  -26.1320   30.0380 C.3   476  GLU476      0.0388
      6  CG       -18.8240  -27.4980   29.4490 C.3   476  GLU476      0.1160
      7  CD       -17.6780  -27.9960   28.6280 C.2   476  GLU476      0.3649
      8  OE1      -16.8730  -27.1600   28.1580 O.co2 476  GLU476     -0.2457
      9  OE2      -17.5690  -29.2170   28.4430 O.co2 476  GLU476     -0.2457
     10  N        -22.6580  -30.9290   24.5810 N.3   493  HIS493     -0.1241
     11  CA       -21.8110  -31.8810   25.2870 C.3   493  HIS493      0.1621
     12  C        -22.7270  -32.6730   26.1910 C.2   493  HIS493      0.2264
     13  O        -23.7240  -32.1550   26.6990 O.2   493  HIS493     -0.2867
     14  CB       -20.7060  -31.1950   26.1150 C.3   493  HIS493      0.0745
     15  CG       -19.5140  -32.0730   26.3910 C.ar  493  HIS493      0.0817
     16  ND1      -19.6120  -33.3100   26.9950 N.ar  493  HIS493     -0.2268
     17  CD2      -18.2010  -31.8750   26.1400 C.ar  493  HIS493      0.1154
     18  CE1      -18.4040  -33.8370   27.1080 C.ar  493  HIS493      0.1986
     19  NE2      -17.5310  -32.9820   26.5980 N.ar  493  HIS493     -0.2212
     20  N        -21.0200  -34.1670   31.4120 N.3   496  TRP496     -0.1227
     21  CA       -19.7740  -34.8290   31.7650 C.3   496  TRP496      0.1737
     22  C        -19.4670  -34.9220   33.2550 C.2   496  TRP496      0.2596
     23  O        -20.3160  -34.6010   34.0900 O.2   496  TRP496     -0.2718
     24  CB       -18.5720  -34.2990   30.9720 C.3   496  TRP496      0.0564
     25  CG       -18.2870  -32.8430   31.1010 C.ar  496  TRP496      0.0003
     26  CD1      -18.7610  -31.8530   30.2930 C.ar  496  TRP496      0.0946
     27  CD2      -17.3790  -32.2250   32.0120 C.ar  496  TRP496      0.0152
     28  NE1      -18.1810  -30.6560   30.6160 N.ar  496  TRP496     -0.2442
     29  CE2      -17.3300  -30.8360   31.6670 C.ar  496  TRP496      0.0810
     30  CE3      -16.5830  -32.6700   33.0730 C.ar  496  TRP496      0.0012
     31  CZ2      -16.5190  -29.9240   32.3430 C.ar  496  TRP496      0.0191
     32  CZ3      -15.7770  -31.7620   33.7360 C.ar  496  TRP496      0.0001
     33  CH2      -15.7490  -30.4060   33.3680 C.ar  496  TRP496      0.0015
     34  N        -18.2630  -35.3980   33.5750 N.am  497  SER497     -0.1952
     35  CA       -17.7960  -35.5850   34.9450 C.3   497  SER497      0.1924
     36  C        -18.2310  -34.4830   35.9100 C.2   497  SER497      0.2314
     37  O        -18.5790  -33.3740   35.4820 O.2   497  SER497     -0.2863
     38  CB       -16.2680  -35.7460   34.9480 C.3   497  SER497      0.2116
     39  OG       -15.8390  -36.7140   33.9760 O.3   497  SER497     -0.2180
     40  N        -16.4910  -31.9260   17.5240 N.3   526  ARG526     -0.1245
     41  CA       -16.0860  -30.8330   18.3790 C.3   526  ARG526      0.1563
     42  C        -14.6080  -30.5890   17.9590 C.2   526  ARG526      0.2260
     43  O        -13.7840  -31.5220   17.9440 O.2   526  ARG526     -0.2867
     44  CB       -16.1680  -31.2420   19.8550 C.3   526  ARG526      0.0307
     45  CG       -15.4900  -30.2840   20.7910 C.3   526  ARG526      0.0489
     46  CD       -15.6800  -30.7050   22.2060 C.3   526  ARG526      0.2205
     47  NE       -15.0690  -29.7520   23.1200 N.pl3 526  ARG526     -0.0865
     48  CZ       -14.9160  -29.9600   24.4200 C.cat 526  ARG526      0.5346
     49  NH1      -15.3330  -31.1010   24.9700 N.pl3 526  ARG526      0.1354
     50  NH2      -14.3340  -29.0230   25.1620 N.pl3 526  ARG526      0.1354
     51  N        -11.7570  -28.5040   19.2680 N.3   528  ASN528     -0.1225
     52  CA       -10.5470  -28.4810   20.1080 C.3   528  ASN528      0.1785
     53  C        -10.4640  -29.5830   21.1660 C.2   528  ASN528      0.2597
     54  O         -9.7920  -29.4290   22.1810 O.2   528  ASN528     -0.2718
     55  CB       -10.3170  -27.0860   20.7570 C.3   528  ASN528      0.1169
     56  CG        -9.6480  -26.0490   19.7950 C.2   528  ASN528      0.2627
     57  OD1       -8.4650  -26.1590   19.4580 O.2   528  ASN528     -0.2716
     58  ND2      -10.3920  -25.0050   19.4300 N.am  528  ASN528     -0.0877
     59  N        -11.1710  -30.6820   20.9650 N.am  529  SER529     -0.1952
     60  CA       -11.0730  -31.7850   21.9150 C.3   529  SER529      0.1924
     61  C        -11.3040  -33.0700   21.1550 C.2   529  SER529      0.2314
     62  O        -12.1810  -33.1330   20.3360 O.2   529  SER529     -0.2863
     63  CB       -12.0850  -31.6460   23.0380 C.3   529  SER529      0.2116
     64  OG       -11.7090  -32.4580   24.1210 O.3   529  SER529     -0.2180
     65  N        -11.7640  -36.3860   22.6060 N.3   531  ASN531     -0.1225
     66  CA       -12.3560  -37.5050   23.3500 C.3   531  ASN531      0.1785
     67  C        -13.8740  -37.6910   23.4310 C.2   531  ASN531      0.2597
     68  O        -14.3580  -38.5480   24.2040 O.2   531  ASN531     -0.2718
     69  CB       -11.7920  -37.5430   24.7610 C.3   531  ASN531      0.1169
     70  CG       -10.3230  -37.7410   24.7720 C.2   531  ASN531      0.2627
     71  OD1       -9.7650  -38.4000   23.8850 O.2   531  ASN531     -0.2716
     72  ND2       -9.6630  -37.1550   25.7620 N.am  531  ASN531     -0.0877
     73  N        -14.6170  -36.8670   22.6930 N.am  532  GLU532     -0.1979
     74  CA       -16.0800  -36.9750   22.6410 C.3   532  GLU532      0.1602
     75  C        -16.5720  -37.0680   21.1950 C.2   532  GLU532      0.2287
     76  O        -17.7160  -36.7640   20.8770 O.2   532  GLU532     -0.2864
     77  CB       -16.7910  -35.8420   23.4050 C.3   532  GLU532      0.0415
     78  CG       -16.0140  -34.5470   23.5110 C.3   532  GLU532      0.1163
     79  CD       -14.8790  -34.6580   24.4820 C.2   532  GLU532      0.3649
     80  OE1      -15.1420  -35.2110   25.5560 O.co2 532  GLU532     -0.2457
     81  OE2      -13.7520  -34.2070   24.1860 O.co2 532  GLU532     -0.2457
     82  N        -18.3970  -39.6700   26.5110 N.3   589  TYR589     -0.1241
     83  CA       -19.1970  -38.5150   26.1800 C.3   589  TYR589      0.1605
     84  C        -19.2720  -38.2630   24.7060 C.2   589  TYR589      0.2264
     85  O        -18.4550  -38.7190   23.9410 O.2   589  TYR589     -0.2867
     86  CB       -18.6370  -37.2470   26.8550 C.3   589  TYR589      0.0534
     87  CG       -18.3580  -37.4040   28.3330 C.ar  589  TYR589     -0.0201
     88  CD1      -19.3800  -37.7230   29.2080 C.ar  589  TYR589     -0.0009
     89  CD2      -17.0580  -37.2870   28.8360 C.ar  589  TYR589     -0.0009
     90  CE1      -19.1310  -37.9380   30.5530 C.ar  589  TYR589      0.0417
     91  CE2      -16.7960  -37.4890   30.1810 C.ar  589  TYR589      0.0417
     92  CZ       -17.8390  -37.8150   31.0240 C.ar  589  TYR589      0.1957
     93  OH       -17.5870  -38.0090   32.3750 O.3   589  TYR589     -0.2866
@<TRIPOS>BOND
     1    40    41    1
     2    43    42    2
     3    42    41    1
     4    41    44    1
     5    51    52    1
     6    58    56   am
     7    57    56    2
     8    56    55    1
     9    44    45    1
    10    52    55    1
    11    52    53    1
    12    62    61    2
    13    45    46    1
    14    76    75    2
    15    59    53   am
    16    59    60    1
    17    61    60    1
    18    53    54    2
    19    75    74    1
    20    60    63    1
    21    46    47    1
    22    65    66    1
    23    74    73    1
    24    74    77    1
    25    73    67   am
    26    63    64    1
    27    47    48    2
    28    66    67    1
    29    66    69    1
    30    77    78    1
    31    67    68    2
    32    78    79    1
    33    71    70    2
    34    85    84    2
    35    81    79   ar
    36    48    49    1
    37    48    50    1
    38    79    80   ar
    39    10    11    1
    40    84    83    1
    41    69    70    1
    42    70    72   am
    43    11    14    1
    44    11    12    1
    45    14    15    1
    46    17    15   ar
    47    17    19   ar
    48    83    82    1
    49    83    86    1
    50    12    13    2
    51    15    16   ar
    52    19    18   ar
    53    86    87    1
    54    16    18   ar
    55     8     7   ar
    56    87    89   ar
    57    87    88   ar
    58     9     7   ar
    59     7     6    1
    60    89    91   ar
    61    88    90   ar
    62     6     5    1
    63     3     4    2
    64     3     2    1
    65     5     2    1
    66    91    92   ar
    67    26    28   ar
    68    26    25   ar
    69    90    92   ar
    70    28    29   ar
    71     2     1    1
    72    24    25    1
    73    24    21    1
    74    92    93    1
    75    25    27   ar
    76    20    21    1
    77    29    27   ar
    78    29    31   ar
    79    21    22    1
    80    27    30   ar
    81    31    33   ar
    82    30    32   ar
    83    22    34   am
    84    22    23    2
    85    33    32   ar
    86    34    35    1
    87    39    38    1
    88    35    38    1
    89    35    36    1
    90    37    36    2
