@<TRIPOS>MOLECULE
tmp/1ev1A00.pdb
 187 175 0 0 0
SMALL
GASTEIGER

@<TRIPOS>ATOM
      1  N         30.2560   61.1520  118.8520 N.3    95  ILE95      -0.1245
      2  CA        29.4800   59.9830  118.4850 C.3    95  ILE95       0.1561
      3  C         30.1300   58.6260  118.7790 C.2    95  ILE95       0.2260
      4  O         31.2430   58.2960  118.3610 O.2    95  ILE95      -0.2867
      5  CB        29.1180   60.1490  116.9880 C.3    95  ILE95       0.0252
      6  CG1       28.3380   61.4390  116.8140 C.3    95  ILE95       0.0019
      7  CG2       28.2550   58.9870  116.4980 C.3    95  ILE95       0.0019
      8  CD1       28.1720   61.8320  115.3400 C.3    95  ILE95       0.0001
      9  N         28.9600   54.3180  119.9270 N.3    97  THR97      -0.1203
     10  CA        28.1610   53.1550  120.2950 C.3    97  THR97       0.1994
     11  C         28.3500   52.6890  121.7430 C.2    97  THR97       0.2617
     12  O         27.4230   52.2830  122.4430 O.2    97  THR97      -0.2717
     13  CB        28.5440   52.0530  119.2960 C.3    97  THR97       0.1784
     14  OG1       27.8240   52.4150  118.1320 O.3    97  THR97      -0.2211
     15  CG2       28.2440   50.6350  119.7230 C.3    97  THR97       0.0376
     16  N         29.5650   52.8290  122.2520 N.am   98  ARG98      -0.1979
     17  CA        29.9550   52.2540  123.5440 C.3    98  ARG98       0.1597
     18  C         29.4870   52.9220  124.8390 C.2    98  ARG98       0.2287
     19  O         29.7900   52.5240  125.9640 O.2    98  ARG98      -0.2864
     20  CB        31.4690   52.1440  123.5940 C.3    98  ARG98       0.0334
     21  CG        32.1380   51.6430  122.3210 C.3    98  ARG98       0.0492
     22  CD        31.6140   50.3350  121.7560 C.3    98  ARG98       0.2205
     23  NE        32.0880   50.2840  120.3880 N.pl3  98  ARG98      -0.0865
     24  CZ        33.1380   49.5400  120.0410 C.cat  98  ARG98       0.5346
     25  NH1       33.7930   48.7910  120.9230 N.pl3  98  ARG98       0.1354
     26  NH2       33.5890   49.6190  118.7890 N.pl3  98  ARG98       0.1354
     27  N         25.7660   44.8550  119.1950 N.3   107  LEU107     -0.1245
     28  CA        26.7190   45.0660  118.1110 C.3   107  LEU107      0.1561
     29  C         27.9960   44.2770  118.3190 C.2   107  LEU107      0.2260
     30  O         28.4490   43.5280  117.4630 O.2   107  LEU107     -0.2867
     31  CB        27.0450   46.5460  117.9890 C.3   107  LEU107      0.0270
     32  CG        25.9310   47.5330  117.6880 C.3   107  LEU107      0.0019
     33  CD1       26.5130   48.8680  117.3650 C.3   107  LEU107      0.0001
     34  CD2       25.1840   47.1420  116.4470 C.3   107  LEU107      0.0001
     35  N         27.0100   48.5550  107.9230 N.3   115  PHE115     -0.1241
     36  CA        25.6160   48.9390  107.8180 C.3   115  PHE115      0.1605
     37  C         25.3440   50.4020  107.5290 C.2   115  PHE115      0.2264
     38  O         26.1910   51.2860  107.7340 O.2   115  PHE115     -0.2867
     39  CB        24.8780   48.5760  109.1130 C.3   115  PHE115      0.0534
     40  CG        25.5030   49.0800  110.4000 C.ar  115  PHE115     -0.0203
     41  CD1       25.3960   50.4150  110.7770 C.ar  115  PHE115     -0.0042
     42  CD2       26.2160   48.2010  111.2110 C.ar  115  PHE115     -0.0042
     43  CE1       25.9680   50.8600  111.9560 C.ar  115  PHE115     -0.0003
     44  CE2       26.7850   48.6560  112.3940 C.ar  115  PHE115     -0.0003
     45  CZ        26.6770   49.9870  112.7600 C.ar  115  PHE115     -0.0000
     46  N         22.6560   53.5610  108.6290 N.3   117  MET117     -0.1245
     47  CA        21.9580   53.8100  109.8750 C.3   117  MET117      0.1570
     48  C         20.8700   54.8510  109.8710 C.2   117  MET117      0.2261
     49  O         21.0020   55.9320  109.3070 O.2   117  MET117     -0.2867
     50  CB        22.9990   54.1290  110.9180 C.3   117  MET117      0.0387
     51  CG        22.4890   54.2840  112.3240 C.3   117  MET117      0.0595
     52  SD        23.8730   54.5330  113.4420 S.3   117  MET117     -0.1393
     53  CE        24.0090   52.8360  113.8810 C.3   117  MET117      0.0692
     54  N         18.9880   57.4520  112.0190 N.3   119  ILE119     -0.1245
     55  CA        19.0710   58.1870  113.2590 C.3   119  ILE119      0.1561
     56  C         17.8010   58.9630  113.5210 C.2   119  ILE119      0.2260
     57  O         17.4220   59.8470  112.7590 O.2   119  ILE119     -0.2867
     58  CB        20.2470   59.1700  113.2690 C.3   119  ILE119      0.0252
     59  CG1       21.5340   58.4860  112.8730 C.3   119  ILE119      0.0019
     60  CG2       20.3960   59.7430  114.6780 C.3   119  ILE119      0.0019
     61  CD1       22.7490   59.4150  112.7870 C.3   119  ILE119      0.0001
     62  N         20.4290   70.7350  115.4680 N.3   144  ILE144     -0.1245
     63  CA        21.3580   69.6270  115.6240 C.3   144  ILE144      0.1561
     64  C         22.3550   69.7540  114.4920 C.2   144  ILE144      0.2260
     65  O         21.9620   69.7500  113.3230 O.2   144  ILE144     -0.2867
     66  CB        20.6710   68.2800  115.4990 C.3   144  ILE144      0.0252
     67  CG1       19.4890   68.2250  116.4270 C.3   144  ILE144      0.0019
     68  CG2       21.6770   67.1830  115.7970 C.3   144  ILE144      0.0019
     69  CD1       18.6490   66.9780  116.2290 C.3   144  ILE144      0.0001
     70  N         25.9380   68.2290  112.6620 N.3   146  TYR146     -0.1241
     71  CA        27.0190   67.2670  112.6170 C.3   146  TYR146      0.1605
     72  C         28.3020   67.9480  112.1780 C.2   146  TYR146      0.2264
     73  O         28.3830   68.5870  111.1260 O.2   146  TYR146     -0.2867
     74  CB        26.7130   66.1480  111.6630 C.3   146  TYR146      0.0534
     75  CG        27.8180   65.1220  111.4830 C.ar  146  TYR146     -0.0201
     76  CD1       28.4340   64.5140  112.5740 C.ar  146  TYR146     -0.0009
     77  CD2       28.2270   64.8020  110.1920 C.ar  146  TYR146     -0.0009
     78  CE1       29.4570   63.5820  112.3660 C.ar  146  TYR146      0.0417
     79  CE2       29.2400   63.8790  109.9820 C.ar  146  TYR146      0.0417
     80  CZ        29.8480   63.2790  111.0680 C.ar  146  TYR146      0.1957
     81  OH        30.8880   62.3960  110.8410 O.3   146  TYR146     -0.2866
     82  N         26.1470   69.0040  107.7250 N.2   168  PRO168     -0.2571
     83  CA        24.7570   68.6810  107.8150 C.3   168  PRO168      0.2026
     84  C         24.0880   69.1320  109.1030 C.2   168  PRO168      0.2684
     85  O         24.6160   68.9270  110.1980 O.2   168  PRO168     -0.2709
     86  CB        24.6600   67.1980  107.6740 C.2   168  PRO168      0.0085
     87  CG        26.0490   66.6590  107.5530 C.2   168  PRO168      0.0180
     88  CD        26.9890   67.8320  107.5930 C.2   168  PRO168      0.0938
     89  N         22.9280   69.7630  109.0220 N.am  169  SER169     -0.1931
     90  CA        22.1640   70.1680  110.2020 C.3   169  SER169      0.2055
     91  C         20.6940   69.8530  110.1190 C.2   169  SER169      0.2642
     92  O         20.1330   69.7530  109.0250 O.2   169  SER169     -0.2714
     93  CB        22.1440   71.6420  110.4700 C.3   169  SER169      0.2130
     94  OG        23.3040   72.2380  111.0060 O.3   169  SER169     -0.2179
     95  N         20.0270   69.6940  111.2410 N.am  170  ILE170     -0.1977
     96  CA        18.5840   69.5560  111.2540 C.3   170  ILE170      0.1596
     97  C         18.0220   70.6170  112.1580 C.2   170  ILE170      0.2287
     98  O         18.4400   70.8050  113.3090 O.2   170  ILE170     -0.2864
     99  CB        18.0520   68.2100  111.7820 C.3   170  ILE170      0.0276
    100  CG1       18.5130   67.0530  110.9490 C.3   170  ILE170      0.0022
    101  CG2       16.5350   68.2210  111.7500 C.3   170  ILE170      0.0022
    102  CD1       17.9990   65.7260  111.4990 C.3   170  ILE170      0.0001
    103  N         17.0130   60.9890  110.1600 N.3   181  MET181     -0.1245
    104  CA        17.9690   60.9230  109.0570 C.3   181  MET181      0.1570
    105  C         18.4320   59.5240  108.7180 C.2   181  MET181      0.2261
    106  O         18.4050   58.6140  109.5470 O.2   181  MET181     -0.2867
    107  CB        19.2330   61.6160  109.3380 C.3   181  MET181      0.0387
    108  CG        19.1120   63.0700  109.5710 C.3   181  MET181      0.0595
    109  SD        20.6380   63.5300  110.4110 S.3   181  MET181     -0.1393
    110  CE        20.2410   62.8570  111.9900 C.3   181  MET181      0.0692
    111  N         21.9710   57.5440  107.3360 N.3   183  ILE183     -0.1245
    112  CA        23.4010   57.7090  107.2020 C.3   183  ILE183      0.1561
    113  C         23.9720   56.5630  106.3690 C.2   183  ILE183      0.2260
    114  O         23.5680   55.4080  106.5450 O.2   183  ILE183     -0.2867
    115  CB        24.0160   57.7620  108.5950 C.3   183  ILE183      0.0252
    116  CG1       23.6020   59.0600  109.2430 C.3   183  ILE183      0.0019
    117  CG2       25.5300   57.7170  108.5750 C.3   183  ILE183      0.0019
    118  CD1       23.9880   60.3260  108.4640 C.3   183  ILE183      0.0001
    119  N         29.6520   55.2680  106.6320 N.3   186  ILE186     -0.1245
    120  CA        30.6100   56.3430  106.7880 C.3   186  ILE186      0.1561
    121  C         32.1080   56.0260  106.9790 C.2   186  ILE186      0.2260
    122  O         32.9780   56.8970  106.8760 O.2   186  ILE186     -0.2867
    123  CB        30.0040   57.1710  107.9320 C.3   186  ILE186      0.0252
    124  CG1       30.5940   58.5560  108.0120 C.3   186  ILE186      0.0019
    125  CG2       30.2340   56.4440  109.2460 C.3   186  ILE186      0.0019
    126  CD1       30.1590   59.3670  109.2490 C.3   186  ILE186      0.0001
    127  N         32.9520   48.4720  109.7140 N.3   192  TYR192     -0.1227
    128  CA        33.1870   49.0520  111.0280 C.3   192  TYR192      0.1736
    129  C         33.8170   48.0080  111.9340 C.2   192  TYR192      0.2596
    130  O         33.5010   46.8180  111.8310 O.2   192  TYR192     -0.2718
    131  CB        31.9200   49.5040  111.7310 C.3   192  TYR192      0.0548
    132  CG        31.1110   50.6220  111.0890 C.ar  192  TYR192     -0.0200
    133  CD1       31.6700   51.8670  110.8040 C.ar  192  TYR192     -0.0009
    134  CD2       29.7820   50.3890  110.8190 C.ar  192  TYR192     -0.0009
    135  CE1       30.8880   52.8760  110.2570 C.ar  192  TYR192      0.0417
    136  CE2       29.0000   51.3890  110.2540 C.ar  192  TYR192      0.0417
    137  CZ        29.5610   52.6240  109.9680 C.ar  192  TYR192      0.1957
    138  OH        28.7700   53.5890  109.3590 O.3   192  TYR192     -0.2866
    139  N         34.7360   48.3790  112.8150 N.am  193  SER193     -0.1938
    140  CA        35.3290   47.3800  113.7000 C.3   193  SER193      0.2055
    141  C         34.9610   47.5670  115.1550 C.2   193  SER193      0.2643
    142  O         35.4190   48.4980  115.8120 O.2   193  SER193     -0.2714
    143  CB        36.8510   47.3790  113.6650 C.3   193  SER193      0.2130
    144  OG        37.4620   47.1130  112.4090 O.3   193  SER193     -0.2179
    145  N         34.1570   46.6840  115.7290 N.am  194  ASN194     -0.1971
    146  CA        33.8450   46.8220  117.1440 C.3   194  ASN194      0.1688
    147  C         35.0330   46.5320  118.0650 C.2   194  ASN194      0.2292
    148  O         35.0910   46.9330  119.2260 O.2   194  ASN194     -0.2864
    149  CB        32.6940   45.9070  117.4890 C.3   194  ASN194      0.1181
    150  CG        31.4190   46.3930  116.8430 C.2   194  ASN194      0.2629
    151  OD1       30.6510   45.6120  116.2990 O.2   194  ASN194     -0.2716
    152  ND2       31.0710   47.6700  116.7930 N.am  194  ASN194     -0.0877
    153  N         37.4260   53.9990  115.6370 N.3   214  ASN214     -0.1240
    154  CA        36.0960   54.5790  115.5780 C.3   214  ASN214      0.1653
    155  C         35.8890   56.0880  115.7510 C.2   214  ASN214      0.2266
    156  O         35.0480   56.5860  116.4910 O.2   214  ASN214     -0.2867
    157  CB        35.2770   53.7440  116.5740 C.3   214  ASN214      0.1155
    158  CG        35.0580   52.3070  116.0630 C.2   214  ASN214      0.2627
    159  OD1       35.7480   51.8160  115.1710 O.2   214  ASN214     -0.2716
    160  ND2       34.0980   51.5430  116.5390 N.am  214  ASN214     -0.0877
    161  N         34.2080   58.9500  114.6300 N.3   216  MET216     -0.1245
    162  CA        32.9950   59.3380  113.9170 C.3   216  MET216      0.1570
    163  C         32.5850   60.8100  113.8750 C.2   216  MET216      0.2261
    164  O         31.5840   61.1800  113.2550 O.2   216  MET216     -0.2867
    165  CB        31.8370   58.5250  114.4820 C.3   216  MET216      0.0387
    166  CG        32.0100   57.0280  114.2860 C.3   216  MET216      0.0595
    167  SD        32.2260   56.5980  112.5410 S.3   216  MET216     -0.1393
    168  CE        33.7580   55.7160  112.6550 C.3   216  MET216      0.0692
    169  N         28.0670   65.5400  117.2780 N.3   219  LEU219     -0.1245
    170  CA        26.8150   66.2690  117.1770 C.3   219  LEU219      0.1561
    171  C         26.6880   67.4510  118.1360 C.2   219  LEU219      0.2260
    172  O         26.7400   67.3020  119.3540 O.2   219  LEU219     -0.2867
    173  CB        25.6460   65.3380  117.4280 C.3   219  LEU219      0.0270
    174  CG        25.3840   64.2100  116.4730 C.3   219  LEU219      0.0019
    175  CD1       24.2560   63.3610  117.0080 C.3   219  LEU219      0.0001
    176  CD2       25.0360   64.7600  115.1140 C.3   219  LEU219      0.0001
    177  N         19.6300   55.1960  117.4810 N.3   240  PHE240     -0.1241
    178  CA        20.2610   54.5390  116.3460 C.3   240  PHE240      0.1605
    179  C         19.6080   53.2480  115.8850 C.2   240  PHE240      0.2264
    180  O         19.2450   52.3890  116.6830 O.2   240  PHE240     -0.2867
    181  CB        21.7010   54.1830  116.6400 C.3   240  PHE240      0.0534
    182  CG        22.7420   55.2950  116.6380 C.ar  240  PHE240     -0.0203
    183  CD1       22.4380   56.6010  116.2470 C.ar  240  PHE240     -0.0042
    184  CD2       24.0400   54.9580  116.9780 C.ar  240  PHE240     -0.0042
    185  CE1       23.4370   57.5680  116.2700 C.ar  240  PHE240     -0.0003
    186  CE2       25.0300   55.9290  117.0010 C.ar  240  PHE240     -0.0003
    187  CZ        24.7360   57.2280  116.6110 C.ar  240  PHE240     -0.0000
@<TRIPOS>BOND
     1   113   114    2
     2   113   112    1
     3   119   120    1
     4   120   121    1
     5   120   123    1
     6   122   121    2
     7   112   111    1
     8   112   115    1
     9    37    38    2
    10    37    36    1
    11    87    88    1
    12    87    86    2
    13    88    82    2
    14    86    83    1
    15    82    83    1
    16    83    84    1
    17    36    35    1
    18    36    39    1
    19   123   124    1
    20   123   125    1
    21   124   126    1
    22   118   116    1
    23   117   115    1
    24   115   116    1
    25    46    47    1
    26   105   104    1
    27   105   106    2
    28    89    84   am
    29    89    90    1
    30    92    91    2
    31   104   107    1
    32   104   103    1
    33    84    85    2
    34    39    40    1
    35    49    48    2
    36   107   108    1
    37   138   137    1
    38   108   109    1
    39   127   128    1
    40    48    47    1
    41    47    50    1
    42   137   136   ar
    43   137   135   ar
    44    79    77   ar
    45    79    80   ar
    46    91    90    1
    47    91    95   am
    48    77    75   ar
    49    90    93    1
    50   136   134   ar
    51   135   133   ar
    52    40    41   ar
    53    40    42   ar
    54   109   110    1
    55    93    94    1
    56    41    43   ar
    57   133   132   ar
    58   134   132   ar
    59    81    80    1
    60    50    51    1
    61   100   102    1
    62   100    99    1
    63   128   131    1
    64   128   129    1
    65    80    78   ar
    66   132   131    1
    67    73    72    2
    68    42    44   ar
    69    95    96    1
    70    96    99    1
    71    96    97    1
    72    75    74    1
    73    75    76   ar
    74    74    71    1
    75   101    99    1
    76   130   129    2
    77   129   139   am
    78    43    45   ar
    79    54    55    1
    80    97    98    2
    81    72    71    1
    82    51    52    1
    83    78    76   ar
    84    44    45   ar
    85   144   143    1
    86   167   168    1
    87   167   166    1
    88    71    70    1
    89    57    56    2
    90    61    59    1
    91   139   140    1
    92    59    58    1
    93   164   163    2
    94    55    58    1
    95    55    56    1
    96    58    60    1
    97    65    64    2
    98    52    53    1
    99   143   140    1
   100   140   141    1
   101   163   162    1
   102   162   165    1
   103   162   161    1
   104   166   165    1
   105    64    63    1
   106   176   174    1
   107   141   145   am
   108   141   142    2
   109   159   158    2
   110     8     6    1
   111    62    63    1
   112    66    63    1
   113    66    68    1
   114    66    67    1
   115   154   153    1
   116   154   155    1
   117   154   157    1
   118   145   146    1
   119   155   156    2
   120   179   178    1
   121   179   180    2
   122   158   160   am
   123   158   157    1
   124    69    67    1
   125   183   185   ar
   126   183   182   ar
   127   185   187   ar
   128   151   150    2
   129   178   181    1
   130   178   177    1
   131    34    32    1
   132   174   175    1
   133   174   173    1
   134     7     5    1
   135   187   186   ar
   136   182   181    1
   137   182   184   ar
   138   152   150   am
   139     6     5    1
   140   150   149    1
   141   184   186   ar
   142     5     2    1
   143   146   149    1
   144   146   147    1
   145   170   169    1
   146   170   173    1
   147   170   171    1
   148    33    32    1
   149    30    29    2
   150    32    31    1
   151    31    28    1
   152   147   148    2
   153    28    29    1
   154    28    27    1
   155    14    13    1
   156   171   172    2
   157     4     3    2
   158     2     3    1
   159     2     1    1
   160    26    24    1
   161    13    15    1
   162    13    10    1
   163     9    10    1
   164    24    23    2
   165    24    25    1
   166    10    11    1
   167    23    22    1
   168    11    16   am
   169    11    12    2
   170    22    21    1
   171    16    17    1
   172    21    20    1
   173    17    20    1
   174    17    18    1
   175    18    19    2
