@<TRIPOS>MOLECULE
tmp/1ev4C00.pdb
 98 95 0 0 0
SMALL
GASTEIGER

@<TRIPOS>ATOM
      1  N          3.6640  116.7240   44.3110 N.3     8  TYR8       -0.1227
      2  CA         3.5060  115.4930   43.5760 C.3     8  TYR8        0.1736
      3  C          2.1990  114.7880   43.9210 C.2     8  TYR8        0.2595
      4  O          1.4340  115.2420   44.7830 O.2     8  TYR8       -0.2718
      5  CB         4.6270  114.5200   43.9470 C.3     8  TYR8        0.0548
      6  CG         4.8920  113.4680   42.9030 C.ar    8  TYR8       -0.0200
      7  CD1        5.2580  113.8360   41.6120 C.ar    8  TYR8       -0.0009
      8  CD2        4.7780  112.1110   43.1980 C.ar    8  TYR8       -0.0009
      9  CE1        5.5050  112.8820   40.6320 C.ar    8  TYR8        0.0417
     10  CE2        5.0270  111.1410   42.2220 C.ar    8  TYR8        0.0417
     11  CZ         5.3890  111.5400   40.9400 C.ar    8  TYR8        0.1957
     12  OH         5.6380  110.6110   39.9490 O.3     8  TYR8       -0.2866
     13  N          1.9410  113.6900   43.2210 N.am    9  PHE9       -0.1976
     14  CA         0.7670  112.8970   43.4390 C.3     9  PHE9        0.1639
     15  C          0.9770  112.0580   44.6790 C.2     9  PHE9        0.2290
     16  O          2.1060  111.9330   45.1820 O.2     9  PHE9       -0.2864
     17  CB         0.5620  111.9360   42.2700 C.3     9  PHE9        0.0560
     18  CG         0.4760  112.6250   40.9440 C.ar    9  PHE9       -0.0200
     19  CD1       -0.7410  113.1140   40.4820 C.ar    9  PHE9       -0.0042
     20  CD2        1.6230  112.8390   40.1840 C.ar    9  PHE9       -0.0042
     21  CE1       -0.8180  113.8120   39.2840 C.ar    9  PHE9       -0.0003
     22  CE2        1.5640  113.5360   38.9850 C.ar    9  PHE9       -0.0003
     23  CZ         0.3380  114.0270   38.5310 C.ar    9  PHE9       -0.0000
     24  N          8.3220  109.5030   40.3350 N.3    14  ARG14      -0.1245
     25  CA         9.6690  110.0690   40.3030 C.3    14  ARG14       0.1563
     26  C         10.0300  110.8790   41.5460 C.2    14  ARG14       0.2260
     27  O         11.1950  111.2340   41.7410 O.2    14  ARG14      -0.2867
     28  CB         9.7990  110.9920   39.0910 C.3    14  ARG14       0.0307
     29  CG         9.4560  110.3400   37.7870 C.3    14  ARG14       0.0489
     30  CD         9.2810  111.3900   36.7180 C.3    14  ARG14       0.2205
     31  NE         8.5000  110.8730   35.6140 N.pl3  14  ARG14      -0.0865
     32  CZ         9.0170  110.3330   34.5170 C.cat  14  ARG14       0.5346
     33  NH1       10.3340  110.2470   34.3690 N.pl3  14  ARG14       0.1354
     34  NH2        8.2120  109.8390   33.5840 N.pl3  14  ARG14       0.1354
     35  N         -3.4780  119.8400   39.5930 N.3    40  LEU40      -0.1245
     36  CA        -2.3540  119.9330   38.6670 C.3    40  LEU40       0.1561
     37  C         -2.5170  121.1950   37.8240 C.2    40  LEU40       0.2260
     38  O         -1.6200  122.0380   37.7670 O.2    40  LEU40      -0.2867
     39  CB        -2.3730  118.6690   37.8040 C.3    40  LEU40       0.0270
     40  CG        -1.2580  118.5120   36.7720 C.3    40  LEU40       0.0019
     41  CD1        0.1200  118.5910   37.4090 C.3    40  LEU40       0.0001
     42  CD2       -1.4550  117.1810   36.0800 C.3    40  LEU40       0.0001
     43  N         -0.1330  124.3720   37.3250 N.3    44  LYS44      -0.1245
     44  CA         0.3210  124.7580   36.0140 C.3    44  LYS44       0.1561
     45  C         -0.0150  126.2090   35.7070 C.2    44  LYS44       0.2260
     46  O          0.8760  127.0300   35.4560 O.2    44  LYS44      -0.2867
     47  CB        -0.3340  123.9220   34.9120 C.3    44  LYS44       0.0271
     48  CG         0.0000  122.4610   34.9600 C.3    44  LYS44       0.0035
     49  CD        -0.5650  121.8540   33.7030 C.3    44  LYS44       0.0206
     50  CE        -0.1650  120.3960   33.6920 C.3    44  LYS44       0.1093
     51  NZ        -0.6740  119.7950   32.4410 N.3    44  LYS44      -0.1314
     52  N          5.4740  122.5730   32.9760 N.3    52  ASP52      -0.1225
     53  CA         4.1200  122.0920   33.3270 C.3    52  ASP52       0.1805
     54  C          4.0720  120.6430   33.7950 C.2    52  ASP52       0.2598
     55  O          3.1170  119.9150   33.5170 O.2    52  ASP52      -0.2718
     56  CB         3.1160  122.2820   32.1860 C.3    52  ASP52       0.1424
     57  CG         2.5760  123.6980   32.0460 C.2    52  ASP52       0.3668
     58  OD1        2.9190  124.5700   32.8670 O.co2  52  ASP52      -0.2456
     59  OD2        1.7990  123.9250   31.1220 O.co2  52  ASP52      -0.2456
     60  N          5.0840  120.2440   34.5530 N.am   53  GLN53      -0.1965
     61  CA         5.1530  118.9050   35.0490 C.3    53  GLN53       0.1733
     62  C          5.7210  118.8580   36.4570 C.2    53  GLN53       0.2616
     63  O          6.3540  119.8010   36.9060 O.2    53  GLN53      -0.2715
     64  CB         6.1670  118.0710   34.2810 C.3    53  GLN53       0.0408
     65  CG         5.9520  118.0110   32.8180 C.3    53  GLN53       0.0908
     66  CD         7.1580  117.4470   32.0990 C.2    53  GLN53       0.2608
     67  OE1        8.3220  117.8490   32.2780 O.2    53  GLN53      -0.2717
     68  NE2        6.9310  116.4620   31.2720 N.am   53  GLN53      -0.0878
     69  N          5.4320  117.7740   37.1630 N.am   54  VAL54      -0.1964
     70  CA         5.9560  117.5590   38.4850 C.3    54  VAL54       0.1712
     71  C          6.8850  116.3650   38.3050 C.2    54  VAL54       0.2458
     72  O          6.7530  115.6680   37.2850 O.2    54  VAL54      -0.2730
     73  CB         4.8490  117.2460   39.5200 C.3    54  VAL54       0.0289
     74  CG1        4.1780  118.5320   39.9730 C.3    54  VAL54       0.0023
     75  CG2        3.8180  116.2960   38.9410 C.3    54  VAL54       0.0023
     76  N          7.7970  116.0360   39.2320 N.am   55  PRO55      -0.2727
     77  CA         8.1100  116.6530   40.5120 C.3    55  PRO55       0.1402
     78  C          8.4680  118.1320   40.4610 C.2    55  PRO55       0.2269
     79  O          9.0530  118.6070   39.4870 O.2    55  PRO55      -0.2865
     80  CB         9.3470  115.8760   40.9730 C.3    55  PRO55       0.0296
     81  CG         9.1860  114.5490   40.3130 C.3    55  PRO55       0.0237
     82  CD         8.7380  114.9430   38.9430 C.3    55  PRO55       0.0939
     83  N         12.1500  119.0620   37.4190 N.3    66  GLN66      -0.1231
     84  CA        13.0900  118.0330   36.9110 C.3    66  GLN66       0.1698
     85  C         13.7940  117.2470   38.0110 C.2    66  GLN66       0.2592
     86  O         14.7200  117.7490   38.6750 O.2    66  GLN66      -0.2718
     87  CB        14.1130  118.6400   35.9500 C.3    66  GLN66       0.0381
     88  CG        13.5240  119.0260   34.6320 C.3    66  GLN66       0.0905
     89  CD        13.0300  117.8190   33.8620 C.2    66  GLN66       0.2608
     90  OE1       13.2780  116.6620   34.2020 O.2    66  GLN66      -0.2717
     91  NE2       12.3250  118.0570   32.7810 N.am   66  GLN66      -0.0878
     92  N         13.3880  115.9900   38.1540 N.am   67  THR67      -0.1953
     93  CA        13.9240  115.0750   39.1800 C.3    67  THR67       0.1897
     94  C         15.4200  115.1680   39.4530 C.2    67  THR67       0.2313
     95  O         15.8490  115.3260   40.6030 O.2    67  THR67      -0.2863
     96  CB        13.6020  113.6100   38.8320 C.3    67  THR67       0.1794
     97  OG1       12.2150  113.5470   38.4600 O.3    67  THR67      -0.2208
     98  CG2       13.8590  112.6970   40.0370 C.3    67  THR67       0.0378
@<TRIPOS>BOND
     1    59    57   ar
     2    68    66   am
     3    57    56    1
     4    57    58   ar
     5    66    67    2
     6    66    65    1
     7    56    53    1
     8    51    50    1
     9    91    89   am
    10    65    64    1
    11    52    53    1
    12    53    54    1
    13    55    54    2
    14    34    32    1
    15    50    49    1
    16    49    48    1
    17    54    60   am
    18    89    90    2
    19    89    88    1
    20    64    61    1
    21    33    32    1
    22    32    31    2
    23    60    61    1
    24    88    87    1
    25    47    48    1
    26    47    44    1
    27    61    62    1
    28    46    45    2
    29    31    30    1
    30    45    44    1
    31    87    84    1
    32    44    43    1
    33    42    40    1
    34    62    63    2
    35    62    69   am
    36    30    29    1
    37    40    41    1
    38    40    39    1
    39    84    83    1
    40    84    85    1
    41    69    70    1
    42    72    71    2
    43    38    37    2
    44    29    28    1
    45    39    36    1
    46    37    36    1
    47    85    92   am
    48    85    86    2
    49    92    93    1
    50    71    70    1
    51    71    76   am
    52    97    96    1
    53    70    73    1
    54    23    22   ar
    55    23    21   ar
    56    36    35    1
    57    96    93    1
    58    96    98    1
    59    75    73    1
    60    82    76    1
    61    82    81    1
    62    22    20   ar
    63    28    25    1
    64    93    94    1
    65    76    77    1
    66    21    19   ar
    67    94    95    2
    68    79    78    2
    69    73    74    1
    70    12    11    1
    71    20    18   ar
    72    25    24    1
    73    25    26    1
    74    81    80    1
    75    78    77    1
    76    19    18   ar
    77    77    80    1
    78     9    11   ar
    79     9     7   ar
    80    11    10   ar
    81    18    17    1
    82    26    27    2
    83     7     6   ar
    84    10     8   ar
    85    17    14    1
    86     6     8   ar
    87     6     5    1
    88    13    14    1
    89    13     3   am
    90    14    15    1
    91     2     3    1
    92     2     5    1
    93     2     1    1
    94     3     4    2
    95    15    16    2
