@<TRIPOS>MOLECULE
tmp/1eviA01.pdb
 84 76 0 0 0
SMALL
GASTEIGER

@<TRIPOS>ATOM
      1  N         39.1150   71.3830   61.4930 N.3    49  ALA49      -0.1245
      2  CA        39.3020   69.9940   61.9090 C.3    49  ALA49       0.1562
      3  C         38.5970   69.0380   60.9520 C.2    49  ALA49       0.2260
      4  O         39.1680   68.0290   60.5420 O.2    49  ALA49      -0.2867
      5  CB        38.8010   69.7950   63.3410 C.3    49  ALA49       0.0290
      6  N         35.2000   67.8860   61.5230 N.3    51  LEU51      -0.1245
      7  CA        34.0360   67.2500   62.1140 C.3    51  LEU51       0.1561
      8  C         32.7280   67.9750   61.8480 C.2    51  LEU51       0.2260
      9  O         32.6400   69.1910   61.9890 O.2    51  LEU51      -0.2867
     10  CB        34.2340   67.0770   63.6180 C.3    51  LEU51       0.0270
     11  CG        33.0960   66.3460   64.3190 C.3    51  LEU51       0.0019
     12  CD1       33.0030   64.9150   63.8230 C.3    51  LEU51       0.0001
     13  CD2       33.3390   66.3780   65.7940 C.3    51  LEU51       0.0001
     14  N         29.6700   69.0490   63.1170 N.3    53  GLN53      -0.1245
     15  CA        29.0260   69.2090   64.4170 C.3    53  GLN53       0.1566
     16  C         28.7200   70.6580   64.7000 C.2    53  GLN53       0.2260
     17  O         29.6330   71.4590   64.8990 O.2    53  GLN53      -0.2867
     18  CB        29.8980   68.6540   65.5490 C.3    53  GLN53       0.0367
     19  CG        29.2020   68.6380   66.9160 C.3    53  GLN53       0.0905
     20  CD        30.0110   67.9160   67.9870 C.2    53  GLN53       0.2608
     21  OE1       30.6580   68.5490   68.8240 O.2    53  GLN53      -0.2717
     22  NE2       29.9670   66.5860   67.9720 N.am   53  GLN53      -0.0878
     23  N         35.2390   65.4820   72.4380 N.3   215  ILE215     -0.1245
     24  CA        35.0800   66.9250   72.4790 C.3   215  ILE215      0.1561
     25  C         34.5910   67.3280   73.8600 C.2   215  ILE215      0.2260
     26  O         33.4360   67.0770   74.2170 O.2   215  ILE215     -0.2867
     27  CB        34.0790   67.4290   71.4120 C.3   215  ILE215      0.0252
     28  CG1       34.6340   67.1730   70.0040 C.3   215  ILE215      0.0019
     29  CG2       33.8130   68.9170   71.6000 C.3   215  ILE215      0.0019
     30  CD1       33.6750   67.5410   68.9080 C.3   215  ILE215      0.0001
     31  N         34.4930   75.4560   72.2770 N.3   224  TYR224     -0.1241
     32  CA        35.8250   75.1640   71.7630 C.3   224  TYR224      0.1605
     33  C         36.9810   75.8160   72.4990 C.2   224  TYR224      0.2264
     34  O         38.1000   75.8920   71.9900 O.2   224  TYR224     -0.2867
     35  CB        35.8730   75.4010   70.2540 C.3   224  TYR224      0.0534
     36  CG        34.7390   74.6720   69.5560 C.ar  224  TYR224     -0.0201
     37  CD1       34.0240   75.2700   68.5210 C.ar  224  TYR224     -0.0009
     38  CD2       34.3450   73.3980   69.9770 C.ar  224  TYR224     -0.0009
     39  CE1       32.9500   74.6270   67.9300 C.ar  224  TYR224      0.0417
     40  CE2       33.2730   72.7500   69.3910 C.ar  224  TYR224      0.0417
     41  CZ        32.5870   73.3710   68.3710 C.ar  224  TYR224      0.1957
     42  OH        31.5390   72.7270   67.7830 O.3   224  TYR224     -0.2866
     43  N         39.9230   69.2660   72.6970 N.3   228  TYR228     -0.1241
     44  CA        39.1830   68.3530   71.8470 C.3   228  TYR228      0.1605
     45  C         40.1500   67.5800   70.9600 C.2   228  TYR228      0.2264
     46  O         41.1850   68.1030   70.5340 O.2   228  TYR228     -0.2867
     47  CB        38.0270   69.0370   71.0740 C.3   228  TYR228      0.0534
     48  CG        38.3620   70.0790   70.0180 C.ar  228  TYR228     -0.0201
     49  CD1       37.6270   71.2590   69.9280 C.ar  228  TYR228     -0.0009
     50  CD2       39.3840   69.8750   69.0940 C.ar  228  TYR228     -0.0009
     51  CE1       37.9020   72.2080   68.9440 C.ar  228  TYR228      0.0417
     52  CE2       39.6680   70.8100   68.1090 C.ar  228  TYR228      0.0417
     53  CZ        38.9290   71.9760   68.0370 C.ar  228  TYR228      0.1957
     54  OH        39.2300   72.8970   67.0550 O.3   228  TYR228     -0.2866
     55  N         40.1140   65.3290   67.6240 N.3   230  ILE230     -0.1245
     56  CA        39.3470   64.9090   66.4590 C.3   230  ILE230      0.1561
     57  C         40.2740   64.2370   65.4670 C.2   230  ILE230      0.2260
     58  O         41.1250   64.8870   64.8710 O.2   230  ILE230     -0.2867
     59  CB        38.6670   66.1130   65.7790 C.3   230  ILE230      0.0252
     60  CG1       37.7380   66.8220   66.7710 C.3   230  ILE230      0.0019
     61  CG2       37.9030   65.6560   64.5560 C.3   230  ILE230      0.0019
     62  CD1       37.1330   68.1250   66.2500 C.3   230  ILE230      0.0001
     63  N         37.7690   81.9670   62.5450 N.3   283  ARG283     -0.1245
     64  CA        36.3980   81.5400   62.2740 C.3   283  ARG283      0.1563
     65  C         35.5160   82.7610   61.9690 C.2   283  ARG283      0.2260
     66  O         35.5180   83.7350   62.7210 O.2   283  ARG283     -0.2867
     67  CB        35.8190   80.8130   63.4950 C.3   283  ARG283      0.0307
     68  CG        36.6240   79.6270   64.0270 C.3   283  ARG283      0.0489
     69  CD        36.0840   79.2410   65.4050 C.3   283  ARG283      0.2205
     70  NE        36.6700   78.0310   65.9690 N.pl3 283  ARG283     -0.0865
     71  CZ        37.7620   78.0100   66.7230 C.cat 283  ARG283      0.5346
     72  NH1       38.4010   79.1350   66.9980 N.pl3 283  ARG283      0.1354
     73  NH2       38.1840   76.8720   67.2590 N.pl3 283  ARG283      0.1354
     74  N         32.3440   78.3620   63.3590 N.3   313  GLY313     -0.1225
     75  CA        32.9710   77.0680   63.5610 C.3   313  GLY313      0.1811
     76  C         32.2110   75.8790   63.0000 C.2   313  GLY313      0.2280
     77  O         32.4810   74.7330   63.3660 O.2   313  GLY313     -0.2866
     78  N         30.4830   71.9440   58.3680 N.3   317  THR317     -0.1218
     79  CA        29.2290   71.3800   58.8310 C.3   317  THR317      0.1862
     80  C         27.9890   71.9150   58.1270 C.2   317  THR317      0.2287
     81  O         26.9710   71.2270   58.0560 O.2   317  THR317     -0.2866
     82  CB        29.0710   71.6310   60.3510 C.3   317  THR317      0.1770
     83  OG1       30.1570   71.0170   61.0490 O.3   317  THR317     -0.2211
     84  CG2       27.7620   71.0890   60.8750 C.3   317  THR317      0.0375
@<TRIPOS>BOND
     1    81    80    2
     2    80    79    1
     3    78    79    1
     4    79    82    1
     5    82    84    1
     6    82    83    1
     7     4     3    2
     8     3     2    1
     9     1     2    1
    10     6     7    1
    11     8     9    2
    12     8     7    1
    13     2     5    1
    14    65    64    1
    15    65    66    2
    16     7    10    1
    17    64    63    1
    18    64    67    1
    19    76    77    2
    20    76    75    1
    21    14    15    1
    22    74    75    1
    23    67    68    1
    24    10    11    1
    25    12    11    1
    26    68    69    1
    27    11    13    1
    28    15    16    1
    29    15    18    1
    30    61    59    1
    31    16    17    2
    32    58    57    2
    33    69    70    1
    34    57    56    1
    35    18    19    1
    36    59    56    1
    37    59    60    1
    38    70    71    2
    39    62    60    1
    40    56    55    1
    41    71    72    1
    42    71    73    1
    43    19    20    1
    44    54    53    1
    45    42    41    1
    46    39    41   ar
    47    39    37   ar
    48    22    20   am
    49    20    21    2
    50    53    52   ar
    51    53    51   ar
    52    52    50   ar
    53    41    40   ar
    54    37    36   ar
    55    30    28    1
    56    51    49   ar
    57    50    48   ar
    58    40    38   ar
    59    36    38   ar
    60    36    35    1
    61    49    48   ar
    62    28    27    1
    63    48    47    1
    64    35    32    1
    65    46    45    2
    66    45    44    1
    67    47    44    1
    68    27    29    1
    69    27    24    1
    70    32    31    1
    71    32    33    1
    72    44    43    1
    73    34    33    2
    74    23    24    1
    75    24    25    1
    76    25    26    2
