@<TRIPOS>MOLECULE
tmp/1evjB00.pdb
 233 228 0 0 0
SMALL
GASTEIGER

@<TRIPOS>ATOM
      1  N         65.9100  108.0590   44.8690 N.3     9  GLY9       -0.1210
      2  CA        66.8400  107.8620   45.9670 C.3     9  GLY9        0.1956
      3  C         67.5880  106.5520   45.8370 C.2     9  GLY9        0.2612
      4  O         67.1720  105.5410   46.3900 O.2     9  GLY9       -0.2717
      5  N         68.6890  106.5620   45.0970 N.am   10  LEU10      -0.1965
      6  CA        69.4690  105.3500   44.9140 C.3    10  LEU10       0.1728
      7  C         70.4450  105.1950   46.0680 C.2    10  LEU10       0.2617
      8  O         71.6560  105.3380   45.9050 O.2    10  LEU10      -0.2715
      9  CB        70.2250  105.3900   43.5840 C.3    10  LEU10       0.0311
     10  CG        69.3910  105.6090   42.3160 C.3    10  LEU10       0.0022
     11  CD1       70.3060  105.5070   41.0970 C.3    10  LEU10       0.0001
     12  CD2       68.2650  104.5820   42.2250 C.3    10  LEU10       0.0001
     13  N         69.8940  104.9150   47.2430 N.am   11  GLY11      -0.1940
     14  CA        70.7070  104.7290   48.4280 C.3    11  GLY11       0.2014
     15  C         70.9120  103.2620   48.7780 C.2    11  GLY11       0.2639
     16  O         70.7990  102.3670   47.9240 O.2    11  GLY11      -0.2714
     17  N         71.2070  103.0170   50.0500 N.am   12  LYS12      -0.1963
     18  CA        71.4570  101.6680   50.5440 C.3    12  LYS12       0.1728
     19  C         70.2450  100.7400   50.3840 C.2    12  LYS12       0.2616
     20  O         70.3670   99.6290   49.8620 O.2    12  LYS12      -0.2715
     21  CB        71.8900  101.7460   52.0070 C.3    12  LYS12       0.0311
     22  CG        72.6220  100.5330   52.5160 C.3    12  LYS12       0.0038
     23  CD        72.9870  100.7290   53.9810 C.3    12  LYS12       0.0206
     24  CE        73.6380   99.4890   54.5800 C.3    12  LYS12       0.1093
     25  NZ        73.8440   99.6450   56.0500 N.3    12  LYS12      -0.1314
     26  N         69.0710  101.1980   50.8060 N.am   13  TYR13      -0.1974
     27  CA        67.8700  100.3740   50.7050 C.3    13  TYR13       0.1639
     28  C         67.4320  100.1550   49.2560 C.2    13  TYR13       0.2290
     29  O         66.9700   99.0710   48.8910 O.2    13  TYR13      -0.2864
     30  CB        66.7260  100.9970   51.5190 C.3    13  TYR13       0.0560
     31  CG        65.5070  100.1070   51.6350 C.ar   13  TYR13      -0.0198
     32  CD1       65.6220   98.7850   52.0530 C.ar   13  TYR13      -0.0009
     33  CD2       64.2380  100.5850   51.3030 C.ar   13  TYR13      -0.0009
     34  CE1       64.5050   97.9570   52.1320 C.ar   13  TYR13       0.0417
     35  CE2       63.1140   99.7710   51.3800 C.ar   13  TYR13       0.0417
     36  CZ        63.2530   98.4590   51.7940 C.ar   13  TYR13       0.1957
     37  OH        62.1390   97.6570   51.8820 O.3    13  TYR13      -0.2866
     38  N         68.1400  110.7990   41.1960 N.3    35  ASP35      -0.1225
     39  CA        69.1780  110.9270   42.2100 C.3    35  ASP35       0.1805
     40  C         70.0850  112.1270   41.9940 C.2    35  ASP35       0.2598
     41  O         70.3330  112.5320   40.8670 O.2    35  ASP35      -0.2718
     42  CB        70.0310  109.6540   42.2580 C.3    35  ASP35       0.1424
     43  CG        70.9800  109.6410   43.4380 C.2    35  ASP35       0.3668
     44  OD1       70.5020  109.7010   44.5910 O.co2  35  ASP35      -0.2456
     45  OD2       72.2050  109.5770   43.2160 O.co2  35  ASP35      -0.2456
     46  N         70.5810  112.6860   43.0900 N.am   36  GLY36      -0.1957
     47  CA        71.4620  113.8330   43.0020 C.3    36  GLY36       0.1869
     48  C         72.8470  113.4210   42.5520 C.2    36  GLY36       0.2309
     49  O         73.8510  114.0000   42.9690 O.2    36  GLY36      -0.2863
     50  N         76.6490  107.7720   39.3290 N.3    40  LYS40      -0.1245
     51  CA        76.1410  106.5820   39.9860 C.3    40  LYS40       0.1561
     52  C         74.8690  106.1020   39.2840 C.2    40  LYS40       0.2260
     53  O         74.7590  104.9280   38.9150 O.2    40  LYS40      -0.2867
     54  CB        75.8600  106.8800   41.4530 C.3    40  LYS40       0.0271
     55  CG        75.6070  105.5540   42.2200 C.3    40  LYS40       0.0035
     56  CD        75.5970  105.7180   43.6970 C.3    40  LYS40       0.0206
     57  CE        74.3830  106.5250   44.1020 C.3    40  LYS40       0.1093
     58  NZ        74.4590  106.8620   45.5150 N.3    40  LYS40      -0.1314
     59  N         66.7870  115.9980   41.3660 N.3    58  TYR58      -0.1241
     60  CA        65.8290  116.7340   42.1790 C.3    58  TYR58       0.1605
     61  C         65.3710  118.0750   41.5980 C.2    58  TYR58       0.2264
     62  O         64.5170  118.7450   42.1800 O.2    58  TYR58      -0.2867
     63  CB        66.3860  116.9130   43.6010 C.3    58  TYR58       0.0534
     64  CG        66.9340  115.6280   44.1970 C.ar   58  TYR58      -0.0201
     65  CD1       66.2090  114.4350   44.1290 C.ar   58  TYR58      -0.0009
     66  CD2       68.2010  115.5930   44.7840 C.ar   58  TYR58      -0.0009
     67  CE1       66.7370  113.2340   44.6220 C.ar   58  TYR58       0.0417
     68  CE2       68.7370  114.4000   45.2810 C.ar   58  TYR58       0.0417
     69  CZ        68.0020  113.2240   45.1940 C.ar   58  TYR58       0.1957
     70  OH        68.5460  112.0420   45.6490 O.3    58  TYR58      -0.2866
     71  N         62.5680  107.1120   48.3530 N.3    76  ILE76      -0.1231
     72  CA        63.4650  106.3840   49.2340 C.3    76  ILE76       0.1692
     73  C         64.5340  107.3740   49.6650 C.2    76  ILE76       0.2592
     74  O         65.7300  107.1250   49.5430 O.2    76  ILE76      -0.2718
     75  CB        64.1160  105.1850   48.4970 C.3    76  ILE76       0.0266
     76  CG1       63.0230  104.2390   47.9950 C.3    76  ILE76       0.0019
     77  CG2       65.0510  104.4320   49.4280 C.3    76  ILE76       0.0020
     78  CD1       63.5280  103.0240   47.2480 C.3    76  ILE76       0.0001
     79  N         64.0830  108.5130   50.1630 N.am   77  LEU77      -0.1966
     80  CA        64.9840  109.5560   50.6040 C.3    77  LEU77       0.1713
     81  C         64.8020  109.7640   52.1000 C.2    77  LEU77       0.2458
     82  O         63.8940  109.1940   52.7120 O.2    77  LEU77      -0.2730
     83  CB        64.6550  110.8560   49.8730 C.3    77  LEU77       0.0310
     84  CG        64.4970  110.7450   48.3580 C.3    77  LEU77       0.0022
     85  CD1       63.8500  111.9980   47.8260 C.3    77  LEU77       0.0001
     86  CD2       65.8410  110.5270   47.7170 C.3    77  LEU77       0.0001
     87  N         65.6760  110.5720   52.7160 N.am   78  PRO78      -0.2716
     88  CA        65.5340  110.8090   54.1510 C.3    78  PRO78       0.1536
     89  C         64.0830  111.1840   54.4540 C.2    78  PRO78       0.2598
     90  O         63.3770  111.7270   53.6020 O.2    78  PRO78      -0.2715
     91  CB        66.5220  111.9430   54.3960 C.3    78  PRO78       0.0310
     92  CG        67.6490  111.5580   53.4770 C.3    78  PRO78       0.0237
     93  CD        66.9200  111.1780   52.2020 C.3    78  PRO78       0.0939
     94  N         63.6470  110.8890   55.6680 N.am   79  ASN79      -0.1973
     95  CA        62.2740  111.1360   56.0740 C.3    79  ASN79       0.1688
     96  C         61.6960  112.5250   55.8280 C.2    79  ASN79       0.2292
     97  O         60.5280  112.6520   55.4670 O.2    79  ASN79      -0.2864
     98  CB        62.1160  110.7670   57.5480 C.3    79  ASN79       0.1181
     99  CG        62.7040  109.4060   57.8660 C.2    79  ASN79       0.2629
    100  OD1       62.6850  108.4960   57.0360 O.2    79  ASN79      -0.2716
    101  ND2       63.2190  109.2570   59.0770 N.am   79  ASN79      -0.0877
    102  N         62.3110  114.6360   53.4210 N.3    81  LEU81      -0.1231
    103  CA        62.0170  114.8770   52.0160 C.3    81  LEU81       0.1693
    104  C         60.8170  114.0740   51.5140 C.2    81  LEU81       0.2592
    105  O         60.3980  114.2290   50.3680 O.2    81  LEU81      -0.2718
    106  CB        63.2370  114.5410   51.1400 C.3    81  LEU81       0.0284
    107  CG        64.5540  115.3130   51.3040 C.3    81  LEU81       0.0019
    108  CD1       64.2800  116.8050   51.2490 C.3    81  LEU81       0.0001
    109  CD2       65.2170  114.9470   52.6180 C.3    81  LEU81       0.0001
    110  N         60.2560  113.2240   52.3640 N.am   82  HIS82      -0.1976
    111  CA        59.1350  112.3920   51.9440 C.3    82  HIS82       0.1656
    112  C         57.9360  113.1520   51.4230 C.2    82  HIS82       0.2291
    113  O         57.4920  112.9190   50.3020 O.2    82  HIS82      -0.2864
    114  CB        58.6910  111.4650   53.0770 C.3    82  HIS82       0.0771
    115  CG        59.6550  110.3540   53.3560 C.ar   82  HIS82       0.0820
    116  ND1       59.3320  109.2680   54.1400 N.ar   82  HIS82      -0.2267
    117  CD2       60.9330  110.1590   52.9520 C.ar   82  HIS82       0.1154
    118  CE1       60.3690  108.4510   54.2050 C.ar   82  HIS82       0.1986
    119  NE2       61.3530  108.9690   53.4930 N.ar   82  HIS82      -0.2212
    120  N         58.4810  105.3550   51.3970 N.3    99  GLU99      -0.1231
    121  CA        59.0610  104.5470   52.4620 C.3    99  GLU99       0.1699
    122  C         58.6610  105.0630   53.8340 C.2    99  GLU99       0.2592
    123  O         58.2170  106.2030   53.9730 O.2    99  GLU99      -0.2718
    124  CB        60.5880  104.5420   52.3730 C.3    99  GLU99       0.0402
    125  CG        61.1800  103.2410   51.8730 C.3    99  GLU99       0.1161
    126  CD        60.5830  102.0250   52.5510 C.2    99  GLU99       0.3649
    127  OE1       60.5470  101.9780   53.7970 O.co2  99  GLU99      -0.2457
    128  OE2       60.1510  101.1050   51.8280 O.co2  99  GLU99      -0.2457
    129  N         58.8290  104.2060   54.8430 N.am  100  LYS100     -0.1966
    130  CA        58.5270  104.5610   56.2250 C.3   100  LYS100      0.1713
    131  C         59.7300  105.2960   56.7950 C.2   100  LYS100      0.2458
    132  O         60.8570  105.1000   56.3290 O.2   100  LYS100     -0.2730
    133  CB        58.2450  103.2950   57.0460 C.3   100  LYS100      0.0311
    134  CG        59.0200  102.0740   56.5810 C.3   100  LYS100      0.0038
    135  CD        60.1420  101.6590   57.5340 C.3   100  LYS100      0.0206
    136  CE        61.1630  102.7530   57.7740 C.3   100  LYS100      0.1093
    137  NZ        62.4650  102.2640   58.3320 N.3   100  LYS100     -0.1314
    138  N         59.5010  106.2200   57.7390 N.am  101  PRO101     -0.2727
    139  CA        58.2010  106.6580   58.2710 C.3   101  PRO101      0.1402
    140  C         57.5430  107.5220   57.1890 C.2   101  PRO101      0.2269
    141  O         58.2460  108.1300   56.3760 O.2   101  PRO101     -0.2865
    142  CB        58.5780  107.5060   59.4860 C.3   101  PRO101      0.0296
    143  CG        59.9720  107.0720   59.8200 C.3   101  PRO101      0.0237
    144  CD        60.6070  106.8310   58.4920 C.3   101  PRO101      0.0939
    145  N         55.7730  102.1420   52.4680 N.3   126  GLY126     -0.1225
    146  CA        56.6060  100.9460   52.4230 C.3   126  GLY126      0.1811
    147  C         56.6700   99.9780   53.6020 C.2   126  GLY126      0.2280
    148  O         57.7510   99.7230   54.1510 O.2   126  GLY126     -0.2866
    149  N         56.8240   96.7320   54.0350 N.3   128  ARG128     -0.1245
    150  CA        57.0970   95.4240   53.4480 C.3   128  ARG128      0.1563
    151  C         56.5960   94.2780   54.3090 C.2   128  ARG128      0.2260
    152  O         56.2490   93.2140   53.7910 O.2   128  ARG128     -0.2867
    153  CB        58.6010   95.2470   53.2040 C.3   128  ARG128      0.0307
    154  CG        59.4790   95.5050   54.4190 C.3   128  ARG128      0.0489
    155  CD        60.9450   95.2690   54.0970 C.3   128  ARG128      0.2205
    156  NE        61.8000   95.6210   55.2250 N.pl3 128  ARG128     -0.0865
    157  CZ        61.9930   94.8520   56.2950 C.cat 128  ARG128      0.5346
    158  NH1       61.3990   93.6710   56.3800 N.pl3 128  ARG128      0.1354
    159  NH2       62.7510   95.2780   57.2970 N.pl3 128  ARG128      0.1354
    160  N         75.4930  111.0860   58.7190 N.3   169  GLN169     -0.1231
    161  CA        74.2880  110.2540   58.7410 C.3   169  GLN169      0.1698
    162  C         73.0630  111.1300   58.9480 C.2   169  GLN169      0.2592
    163  O         72.9790  111.8770   59.9130 O.2   169  GLN169     -0.2718
    164  CB        74.3660  109.2240   59.8750 C.3   169  GLN169      0.0381
    165  CG        74.1630  107.7760   59.4390 C.3   169  GLN169      0.0905
    166  CD        72.7730  107.4920   58.8660 C.2   169  GLN169      0.2608
    167  OE1       72.4600  106.3500   58.5220 O.2   169  GLN169     -0.2717
    168  NE2       71.9400  108.5240   58.7630 N.am  169  GLN169     -0.0878
    169  N         72.1070  111.0250   58.0440 N.am  170  TRP170     -0.1962
    170  CA        70.9010  111.8270   58.1240 C.3   170  TRP170      0.1771
    171  C         69.9570  111.3310   59.2140 C.2   170  TRP170      0.2619
    172  O         69.0370  112.0470   59.6200 O.2   170  TRP170     -0.2715
    173  CB        70.1820  111.8320   56.7740 C.3   170  TRP170      0.0590
    174  CG        69.6290  110.5000   56.3600 C.ar  170  TRP170      0.0006
    175  CD1       70.2080  109.5950   55.5190 C.ar  170  TRP170      0.0946
    176  CD2       68.3820  109.9260   56.7730 C.ar  170  TRP170      0.0152
    177  NE1       69.3990  108.4930   55.3800 N.ar  170  TRP170     -0.2442
    178  CE2       68.2720  108.6690   56.1410 C.ar  170  TRP170      0.0810
    179  CE3       67.3480  110.3540   57.6150 C.ar  170  TRP170      0.0012
    180  CZ2       67.1670  107.8280   56.3270 C.ar  170  TRP170      0.0191
    181  CZ3       66.2490  109.5260   57.8000 C.ar  170  TRP170      0.0001
    182  CH2       66.1680  108.2750   57.1580 C.ar  170  TRP170      0.0015
    183  N         70.1850  110.1030   59.6780 N.am  171  ARG171     -0.1977
    184  CA        69.3620  109.5150   60.7290 C.3   171  ARG171      0.1597
    185  C         69.6540  110.1280   62.0860 C.2   171  ARG171      0.2287
    186  O         68.8590  110.0180   63.0240 O.2   171  ARG171     -0.2864
    187  CB        69.5960  108.0130   60.8100 C.3   171  ARG171      0.0334
    188  CG        68.9240  107.2260   59.7130 C.3   171  ARG171      0.0492
    189  CD        69.0850  105.7370   59.9480 C.3   171  ARG171      0.2205
    190  NE        68.3650  104.9560   58.9450 N.pl3 171  ARG171     -0.0865
    191  CZ        68.7840  104.7480   57.6980 C.cat 171  ARG171      0.5346
    192  NH1       69.9390  105.2650   57.2870 N.pl3 171  ARG171      0.1354
    193  NH2       68.0410  104.0250   56.8610 N.pl3 171  ARG171      0.1354
    194  N         66.2400  115.9510   59.3620 N.3   176  LEU176     -0.1245
    195  CA        66.1210  114.9940   58.2710 C.3   176  LEU176      0.1561
    196  C         65.4570  113.6900   58.7010 C.2   176  LEU176      0.2260
    197  O         64.8440  112.9930   57.8860 O.2   176  LEU176     -0.2867
    198  CB        67.5010  114.6600   57.6860 C.3   176  LEU176      0.0270
    199  CG        68.3190  115.7140   56.9290 C.3   176  LEU176      0.0019
    200  CD1       67.4340  116.3730   55.8720 C.3   176  LEU176      0.0001
    201  CD2       68.8810  116.7470   57.8940 C.3   176  LEU176      0.0001
    202  N         62.9910  105.2790   63.0950 N.3   184  ASP184     -0.1239
    203  CA        63.7220  104.4160   62.1870 C.3   184  ASP184      0.1674
    204  C         63.3470  102.9270   62.2180 C.2   184  ASP184      0.2266
    205  O         63.0560  102.3270   61.1750 O.2   184  ASP184     -0.2867
    206  CB        65.2210  104.5750   62.4430 C.3   184  ASP184      0.1410
    207  CG        66.0650  103.8660   61.4120 C.2   184  ASP184      0.3668
    208  OD1       65.8600  104.1080   60.2000 O.co2 184  ASP184     -0.2456
    209  OD2       66.9380  103.0690   61.8070 O.co2 184  ASP184     -0.2456
    210  N         58.6720   99.3330   63.5480 N.3   188  TYR188     -0.1241
    211  CA        58.3200   97.9730   63.1560 C.3   188  TYR188      0.1605
    212  C         57.5960   97.2970   64.3050 C.2   188  TYR188      0.2264
    213  O         56.6250   96.5690   64.1010 O.2   188  TYR188     -0.2867
    214  CB        59.5560   97.1460   62.8070 C.3   188  TYR188      0.0534
    215  CG        60.1570   97.4950   61.4840 C.ar  188  TYR188     -0.0201
    216  CD1       59.6970   96.9080   60.3050 C.ar  188  TYR188     -0.0009
    217  CD2       61.1710   98.4510   61.4010 C.ar  188  TYR188     -0.0009
    218  CE1       60.2370   97.2730   59.0630 C.ar  188  TYR188      0.0417
    219  CE2       61.7140   98.8260   60.1750 C.ar  188  TYR188      0.0417
    220  CZ        61.2480   98.2390   59.0160 C.ar  188  TYR188      0.1957
    221  OH        61.8050   98.6360   57.8330 O.3   188  TYR188     -0.2866
    222  N         65.2300   91.1960   56.4210 N.3   267  TYR267     -0.1241
    223  CA        65.2180   91.2500   54.9560 C.3   267  TYR267      0.1605
    224  C         65.0650   89.8530   54.3750 C.2   267  TYR267      0.2264
    225  O         64.3390   89.6470   53.3990 O.2   267  TYR267     -0.2867
    226  CB        66.5170   91.8720   54.4260 C.3   267  TYR267      0.0534
    227  CG        66.6880   93.3530   54.7140 C.ar  267  TYR267     -0.0201
    228  CD1       67.9580   93.9280   54.7570 C.ar  267  TYR267     -0.0009
    229  CD2       65.5810   94.1860   54.9160 C.ar  267  TYR267     -0.0009
    230  CE1       68.1280   95.2930   54.9920 C.ar  267  TYR267      0.0417
    231  CE2       65.7390   95.5540   55.1510 C.ar  267  TYR267      0.0417
    232  CZ        67.0180   96.1010   55.1850 C.ar  267  TYR267      0.1957
    233  OH        67.1850   97.4540   55.4070 O.3   267  TYR267     -0.2866
@<TRIPOS>BOND
     1    53    52    2
     2    52    51    1
     3    50    51    1
     4    51    54    1
     5    41    40    2
     6    11    10    1
     7    38    39    1
     8    59    60    1
     9    54    55    1
    10    61    60    1
    11    61    62    2
    12    40    39    1
    13    40    46   am
    14    60    63    1
    15    39    42    1
    16    55    56    1
    17    12    10    1
    18    42    43    1
    19    10     9    1
    20    48    49    2
    21    48    47    1
    22    47    46    1
    23    45    43   ar
    24    43    44   ar
    25     9     6    1
    26    63    64    1
    27    56    57    1
    28    57    58    1
    29    65    64   ar
    30    65    67   ar
    31    64    66   ar
    32    67    69   ar
    33    66    68   ar
    34     1     2    1
    35     6     5    1
    36     6     7    1
    37     5     3   am
    38    69    68   ar
    39    69    70    1
    40     3     2    1
    41     3     4    2
    42     8     7    2
    43     7    13   am
    44    13    14    1
    45    78    76    1
    46    86    84    1
    47    85    84    1
    48    16    15    2
    49    76    75    1
    50    71    72    1
    51    84    83    1
    52    14    15    1
    53    75    72    1
    54    75    77    1
    55    15    17   am
    56    29    28    2
    57    72    73    1
    58    28    27    1
    59    74    73    2
    60    73    79   am
    61    20    19    2
    62    83    80    1
    63    17    18    1
    64    79    80    1
    65   113   112    2
    66   105   104    2
    67    19    18    1
    68    19    26   am
    69    18    21    1
    70    80    81    1
    71    27    26    1
    72    27    30    1
    73   106   107    1
    74   106   103    1
    75   108   107    1
    76    33    35   ar
    77    33    31   ar
    78   107   109    1
    79    35    36   ar
    80   120   121    1
    81   112   111    1
    82   104   103    1
    83   104   110   am
    84    30    31    1
    85    31    32   ar
    86    36    37    1
    87    36    34   ar
    88   128   126   ar
    89   125   124    1
    90   125   126    1
    91   111   110    1
    92   111   114    1
    93    21    22    1
    94   103   102    1
    95    32    34   ar
    96    81    82    2
    97    81    87   am
    98    93    87    1
    99    93    92    1
   100   124   121    1
   101   146   145    1
   102   146   147    1
   103   121   122    1
   104    22    23    1
   105   126   127   ar
   106    87    88    1
   107   117   115   ar
   108   117   119   ar
   109   114   115    1
   110   153   150    1
   111   153   154    1
   112   115   116   ar
   113   225   224    2
   114   150   149    1
   115   150   151    1
   116    92    91    1
   117   119   118   ar
   118   147   148    2
   119    90    89    2
   120   152   151    2
   121   122   123    2
   122   122   129   am
   123    23    24    1
   124   155   154    1
   125   155   156    1
   126   116   118   ar
   127    88    91    1
   128    88    89    1
   129   224   223    1
   130   226   227    1
   131   226   223    1
   132    89    94   am
   133    24    25    1
   134   227   228   ar
   135   227   229   ar
   136   228   230   ar
   137   129   130    1
   138   229   231   ar
   139   223   222    1
   140   230   232   ar
   141   231   232   ar
   142   232   233    1
   143   156   157    2
   144   177   175   ar
   145   177   178   ar
   146    97    96    2
   147   175   174   ar
   148    94    95    1
   149    96    95    1
   150   200   199    1
   151    95    98    1
   152   178   180   ar
   153   178   176   ar
   154   130   131    1
   155   130   133    1
   156   157   158    1
   157   157   159    1
   158   180   182   ar
   159   132   131    2
   160   174   176   ar
   161   174   173    1
   162   141   140    2
   163   134   133    1
   164   134   135    1
   165   176   179   ar
   166   173   170    1
   167   131   138   am
   168   193   191    1
   169   199   198    1
   170   199   201    1
   171   100    99    2
   172   182   181   ar
   173   140   139    1
   174   192   191    1
   175   135   136    1
   176    98    99    1
   177   179   181   ar
   178   198   195    1
   179   191   190    2
   180   138   139    1
   181   138   144    1
   182   136   137    1
   183   221   220    1
   184    99   101   am
   185   197   196    2
   186   169   170    1
   187   169   162   am
   188   170   171    1
   189   139   142    1
   190   195   196    1
   191   195   194    1
   192   144   143    1
   193   167   166    2
   194   160   161    1
   195   161   162    1
   196   161   164    1
   197   168   166   am
   198   166   165    1
   199   190   189    1
   200   162   163    2
   201   220   218   ar
   202   220   219   ar
   203   218   216   ar
   204   171   172    2
   205   171   183   am
   206   165   164    1
   207   142   143    1
   208   183   184    1
   209   188   189    1
   210   188   187    1
   211   219   217   ar
   212   208   207   ar
   213   216   215   ar
   214   184   187    1
   215   184   185    1
   216   205   204    2
   217   217   215   ar
   218   207   209   ar
   219   207   206    1
   220   215   214    1
   221   185   186    2
   222   203   204    1
   223   203   206    1
   224   203   202    1
   225   214   211    1
   226   211   210    1
   227   211   212    1
   228   213   212    2
