@<TRIPOS>MOLECULE
tmp/1evkB00.pdb
 115 107 0 0 0
SMALL
GASTEIGER

@<TRIPOS>ATOM
      1  N         39.4980   34.1500   26.8270 N.3    91  MET91      -0.1245
      2  CA        38.5390   34.4010   27.9150 C.3    91  MET91       0.1570
      3  C         38.4400   35.8990   28.2010 C.2    91  MET91       0.2261
      4  O         39.3650   36.6500   27.8930 O.2    91  MET91      -0.2867
      5  CB        38.9860   33.6970   29.2000 C.3    91  MET91       0.0387
      6  CG        39.0100   32.1970   29.1310 C.3    91  MET91       0.0595
      7  SD        39.4280   31.4520   30.7190 S.3    91  MET91      -0.1393
      8  CE        39.1960   29.6920   30.3240 C.3    91  MET91       0.0692
      9  N         37.7720   37.2670   31.4180 N.3    93  CYS93      -0.1235
     10  CA        38.0360   37.5630   32.8120 C.3    93  CYS93       0.1677
     11  C         39.1400   38.5600   33.1080 C.2    93  CYS93       0.2270
     12  O         38.9450   39.5040   33.8690 O.2    93  CYS93      -0.2867
     13  CB        38.3110   36.2600   33.6040 C.3    93  CYS93       0.0956
     14  SG        38.1750   34.6840   32.6770 S.3    93  CYS93      -0.0801
     15  N         39.8220   30.2720   20.5120 N.3   122  ARG122     -0.1245
     16  CA        40.5800   29.1790   21.0780 C.3   122  ARG122      0.1563
     17  C         41.0030   28.3230   19.8810 C.2   122  ARG122      0.2260
     18  O         40.1770   27.9150   19.0550 O.2   122  ARG122     -0.2867
     19  CB        39.7130   28.3940   22.0730 C.3   122  ARG122      0.0307
     20  CG        39.3500   29.2490   23.3010 C.3   122  ARG122      0.0489
     21  CD        38.4810   28.5310   24.3340 C.3   122  ARG122      0.2205
     22  NE        38.0910   29.4750   25.3790 N.pl3 122  ARG122     -0.0865
     23  CZ        37.3100   29.1850   26.4180 C.cat 122  ARG122      0.5346
     24  NH1       36.8190   27.9540   26.5780 N.pl3 122  ARG122      0.1354
     25  NH2       37.0020   30.1430   27.2870 N.pl3 122  ARG122      0.1354
     26  N         30.8440   34.5050   23.9810 N.3   140  GLN140     -0.1245
     27  CA        30.4020   33.9640   25.2540 C.3   140  GLN140      0.1566
     28  C         29.4150   34.9220   25.9450 C.2   140  GLN140      0.2260
     29  O         29.6340   36.1270   25.9100 O.2   140  GLN140     -0.2867
     30  CB        31.6610   33.7870   26.1110 C.3   140  GLN140      0.0367
     31  CG        31.6950   32.6070   26.9980 C.3   140  GLN140      0.0905
     32  CD        33.0650   32.4280   27.6420 C.2   140  GLN140      0.2608
     33  OE1       33.4330   31.3230   28.0390 O.2   140  GLN140     -0.2717
     34  NE2       33.8130   33.5160   27.7580 N.am  140  GLN140     -0.0878
     35  N         29.1630   35.7660   28.7960 N.3   142  ASP142     -0.1239
     36  CA        29.9760   35.7490   30.0040 C.3   142  ASP142      0.1674
     37  C         29.7170   36.8680   31.0130 C.2   142  ASP142      0.2266
     38  O         29.1380   37.8950   30.6830 O.2   142  ASP142     -0.2867
     39  CB        31.4280   35.8360   29.5570 C.3   142  ASP142      0.1410
     40  CG        32.4020   35.3300   30.5900 C.2   142  ASP142      0.3668
     41  OD1       31.9780   34.5780   31.4910 O.co2 142  ASP142     -0.2456
     42  OD2       33.6110   35.6710   30.4560 O.co2 142  ASP142     -0.2456
     43  N         31.4860   38.1030   35.1930 N.3   144  HIS144     -0.1241
     44  CA        32.2510   37.8100   36.3770 C.3   144  HIS144      0.1621
     45  C         31.6510   38.6250   37.4780 C.2   144  HIS144      0.2264
     46  O         31.3680   39.8000   37.3090 O.2   144  HIS144     -0.2867
     47  CB        33.7100   38.1520   36.1930 C.3   144  HIS144      0.0745
     48  CG        34.3190   37.3650   35.0960 C.ar  144  HIS144      0.0817
     49  ND1       34.2770   37.7840   33.7870 N.ar  144  HIS144     -0.2268
     50  CD2       34.8060   36.1040   35.0770 C.ar  144  HIS144      0.1154
     51  CE1       34.7090   36.8160   33.0040 C.ar  144  HIS144      0.1986
     52  NE2       35.0330   35.7860   33.7630 N.ar  144  HIS144     -0.2212
     53  N         41.9960   27.5480   37.1610 N.3   221  TYR221     -0.1241
     54  CA        41.8260   28.5230   38.2510 C.3   221  TYR221      0.1605
     55  C         40.6860   28.2520   39.2340 C.2   221  TYR221      0.2264
     56  O         40.5270   28.9980   40.1990 O.2   221  TYR221     -0.2867
     57  CB        41.6460   29.9400   37.6770 C.3   221  TYR221      0.0534
     58  CG        40.5740   30.0140   36.6080 C.ar  221  TYR221     -0.0201
     59  CD1       39.2280   30.1390   36.9460 C.ar  221  TYR221     -0.0009
     60  CD2       40.9050   29.9010   35.2570 C.ar  221  TYR221     -0.0009
     61  CE1       38.2400   30.1470   35.9720 C.ar  221  TYR221      0.0417
     62  CE2       39.9160   29.9070   34.2730 C.ar  221  TYR221      0.0417
     63  CZ        38.5860   30.0310   34.6390 C.ar  221  TYR221      0.1957
     64  OH        37.6030   30.0380   33.6710 O.3   221  TYR221     -0.2866
     65  N         34.0720   24.0450   38.9270 N.3   224  LYS224     -0.1245
     66  CA        32.9000   24.6050   38.2940 C.3   224  LYS224      0.1561
     67  C         31.7010   23.6880   38.2750 C.2   224  LYS224      0.2260
     68  O         31.8160   22.4540   38.1920 O.2   224  LYS224     -0.2867
     69  CB        33.2280   25.0660   36.8700 C.3   224  LYS224      0.0271
     70  CG        34.0630   24.1140   36.0760 C.3   224  LYS224      0.0035
     71  CD        34.5950   24.7510   34.7980 C.3   224  LYS224      0.0206
     72  CE        35.2860   23.7210   33.9410 C.3   224  LYS224      0.1093
     73  NZ        35.2470   24.1100   32.5060 N.3   224  LYS224     -0.1314
     74  N         27.8210   27.1190   32.9450 N.3   241  THR241     -0.1218
     75  CA        28.9760   26.9380   33.7930 C.3   241  THR241      0.1862
     76  C         29.0520   28.0640   34.8430 C.2   241  THR241      0.2287
     77  O         28.8300   29.2420   34.5480 O.2   241  THR241     -0.2866
     78  CB        30.2740   26.8780   32.9430 C.3   241  THR241      0.1770
     79  OG1       31.3620   26.4820   33.7860 O.3   241  THR241     -0.2211
     80  CG2       30.5870   28.2670   32.3010 C.3   241  THR241      0.0375
     81  N         31.6780   29.0990   37.9460 N.3   243  GLN243     -0.1245
     82  CA        33.0150   28.7880   38.4670 C.3   243  GLN243      0.1566
     83  C         33.4480   29.6890   39.6240 C.2   243  GLN243      0.2260
     84  O         33.2230   30.8990   39.5930 O.2   243  GLN243     -0.2867
     85  CB        34.0140   28.9000   37.2960 C.3   243  GLN243      0.0367
     86  CG        33.3570   28.6070   35.9340 C.3   243  GLN243      0.0905
     87  CD        34.3240   28.7130   34.7650 C.2   243  GLN243      0.2608
     88  OE1       35.3890   29.3170   34.8840 O.2   243  GLN243     -0.2717
     89  NE2       33.9380   28.1490   33.6200 N.am  243  GLN243     -0.0878
     90  N         32.7980   33.0940   37.9440 N.3   270  HIS270     -0.1226
     91  CA        32.7010   33.1910   36.4850 C.3   270  HIS270      0.1752
     92  C         31.4440   32.4440   36.0910 C.2   270  HIS270      0.2596
     93  O         31.1560   31.4150   36.6860 O.2   270  HIS270     -0.2718
     94  CB        33.8510   32.4680   35.7560 C.3   270  HIS270      0.0759
     95  CG        35.2230   32.8000   36.2530 C.ar  270  HIS270      0.0818
     96  ND1       36.2780   33.0480   35.4010 N.ar  270  HIS270     -0.2268
     97  CD2       35.7340   32.8550   37.5060 C.ar  270  HIS270      0.1154
     98  CE1       37.3770   33.2460   36.1020 C.ar  270  HIS270      0.1986
     99  NE2       37.0760   33.1320   37.3840 N.ar  270  HIS270     -0.2212
    100  N         30.7000   32.9330   35.1010 N.am  271  ARG271     -0.1966
    101  CA        29.5390   32.1650   34.6640 C.3   271  ARG271      0.1729
    102  C         29.0780   32.5150   33.2600 C.2   271  ARG271      0.2616
    103  O         29.1460   33.6720   32.8330 O.2   271  ARG271     -0.2715
    104  CB        28.3590   32.2910   35.6710 C.3   271  ARG271      0.0348
    105  CG        27.1200   33.0810   35.1750 C.3   271  ARG271      0.0492
    106  CD        27.3510   34.5740   35.2870 C.3   271  ARG271      0.2205
    107  NE        26.2290   35.4080   34.8330 N.pl3 271  ARG271     -0.0865
    108  CZ        25.9710   35.7170   33.5630 C.cat 271  ARG271      0.5346
    109  NH1       26.7350   35.2500   32.5800 N.pl3 271  ARG271      0.1354
    110  NH2       25.0010   36.5720   33.2790 N.pl3 271  ARG271      0.1354
    111  N         28.6620   31.4910   32.5240 N.am  272  ALA272     -0.1977
    112  CA        28.1080   31.6720   31.1800 C.3   272  ALA272      0.1597
    113  C         26.8890   30.7490   31.2090 C.2   272  ALA272      0.2287
    114  O         26.9700   29.6260   31.7200 O.2   272  ALA272     -0.2864
    115  CB        29.1080   31.2280   30.1160 C.3   272  ALA272      0.0319
@<TRIPOS>BOND
     1    18    17    2
     2    17    16    1
     3    15    16    1
     4    16    19    1
     5    19    20    1
     6    20    21    1
     7    26    27    1
     8    21    22    1
     9    27    28    1
    10    27    30    1
    11    22    23    2
    12    29    28    2
    13    30    31    1
    14    23    24    1
    15    23    25    1
    16     1     2    1
    17    31    32    1
    18    32    34   am
    19    32    33    2
    20     4     3    2
    21     2     3    1
    22     2     5    1
    23    35    36    1
    24     6     5    1
    25     6     7    1
    26    39    36    1
    27    39    40    1
    28    36    37    1
    29   115   112    1
    30     8     7    1
    31    42    40   ar
    32    40    41   ar
    33    38    37    2
    34   112   113    1
    35   112   111    1
    36   113   114    2
    37     9    10    1
    38    80    78    1
    39    73    72    1
    40   111   102   am
    41   109   108    1
    42    14    13    1
    43    10    11    1
    44    10    13    1
    45   103   102    2
    46    78    79    1
    47    78    75    1
    48    74    75    1
    49    51    52   ar
    50    51    49   ar
    51    11    12    2
    52   102   101    1
    53   110   108    1
    54   108   107    2
    55    89    87   am
    56    64    63    1
    57    52    50   ar
    58    49    48   ar
    59    75    76    1
    60    72    71    1
    61    62    63   ar
    62    62    60   ar
    63    77    76    2
    64    63    61   ar
    65   101   100    1
    66   101   104    1
    67    87    88    2
    68    87    86    1
    69    71    70    1
    70   107   106    1
    71    50    48   ar
    72    48    47    1
    73   100    92   am
    74   105   106    1
    75   105   104    1
    76    43    44    1
    77    60    58   ar
    78    96    98   ar
    79    96    95   ar
    80    94    95    1
    81    94    91    1
    82    86    85    1
    83    61    59   ar
    84    70    69    1
    85    92    91    1
    86    92    93    2
    87    98    99   ar
    88    47    44    1
    89    95    97   ar
    90    44    45    1
    91    91    90    1
    92    58    59   ar
    93    58    57    1
    94    69    66    1
    95    53    54    1
    96    85    82    1
    97    46    45    2
    98    99    97   ar
    99    57    54    1
   100    81    82    1
   101    68    67    2
   102    54    55    1
   103    67    66    1
   104    66    65    1
   105    82    83    1
   106    55    56    2
   107    84    83    2
