@<TRIPOS>MOLECULE
tmp/1evqA00.pdb
 123 118 0 0 0
SMALL
GASTEIGER

@<TRIPOS>ATOM
      1  N         63.3900    9.0420    2.1050 N.3    78  GLY78      -0.1210
      2  CA        62.0330    9.0520    2.6490 C.3    78  GLY78       0.1956
      3  C         61.7810    7.8530    3.5710 C.2    78  GLY78       0.2612
      4  O         62.6660    7.0330    3.7820 O.2    78  GLY78      -0.2717
      5  N         60.5780    7.7500    4.1260 N.am   79  GLY79      -0.1942
      6  CA        60.2520    6.6430    5.0170 C.3    79  GLY79       0.2014
      7  C         59.3700    7.0340    6.2030 C.2    79  GLY79       0.2639
      8  O         59.3260    6.3230    7.2030 O.2    79  GLY79      -0.2714
      9  N         58.6780    8.1680    6.1060 N.am   80  GLY80      -0.1939
     10  CA        57.8090    8.6180    7.1820 C.3    80  GLY80       0.2014
     11  C         58.5020    9.0570    8.4690 C.2    80  GLY80       0.2638
     12  O         57.8750    9.0790    9.5350 O.2    80  GLY80      -0.2714
     13  N         59.7840    9.4150    8.3630 N.am   81  TRP81      -0.1973
     14  CA        60.5980    9.8450    9.5040 C.3    81  TRP81       0.1640
     15  C         60.7390    8.6560   10.4490 C.2    81  TRP81       0.2290
     16  O         61.2360    8.7890   11.5560 O.2    81  TRP81      -0.2864
     17  CB        59.9390   11.0230   10.2640 C.3    81  TRP81       0.0576
     18  CG        59.6780   12.2830    9.4540 C.ar   81  TRP81       0.0006
     19  CD1       60.6040   13.1970    9.0080 C.ar   81  TRP81       0.0946
     20  CD2       58.4080   12.7260    8.9550 C.ar   81  TRP81       0.0152
     21  NE1       59.9820   14.1760    8.2590 N.ar   81  TRP81      -0.2442
     22  CE2       58.6360   13.9100    8.2110 C.ar   81  TRP81       0.0810
     23  CE3       57.1000   12.2370    9.0700 C.ar   81  TRP81       0.0012
     24  CZ2       57.5930   14.6150    7.5770 C.ar   81  TRP81       0.0191
     25  CZ3       56.0640   12.9380    8.4460 C.ar   81  TRP81       0.0001
     26  CH2       56.3200   14.1170    7.7050 C.ar   81  TRP81       0.0015
     27  N         59.5840   12.2600   -0.2550 N.3   151  SER151     -0.1202
     28  CA        58.6010   12.1060    0.8190 C.3   151  SER151      0.2020
     29  C         59.0270   12.8560    2.0840 C.2   151  SER151      0.2618
     30  O         59.1540   14.0640    2.0680 O.2   151  SER151     -0.2717
     31  CB        58.5240   10.6260    1.0880 C.3   151  SER151      0.2103
     32  OG        57.1030   10.1420    1.7450 O.3   151  SER151     -0.2182
     33  N         59.2270   12.1320    3.1810 N.am  152  ALA152     -0.1979
     34  CA        59.6510   12.7480    4.4250 C.3   152  ALA152      0.1597
     35  C         61.0080   13.3650    4.2140 C.2   152  ALA152      0.2287
     36  O         61.3900   14.2890    4.9130 O.2   152  ALA152     -0.2864
     37  CB        59.7160   11.7230    5.5410 C.3   152  ALA152      0.0319
     38  N         56.3890   15.6550    1.6710 N.3   181  SER181     -0.1217
     39  CA        55.3580   15.8520    2.6860 C.3   181  SER181      0.1889
     40  C         55.6300   17.2240    3.3180 C.2   181  SER181      0.2288
     41  O         56.1750   17.3180    4.4220 O.2   181  SER181     -0.2866
     42  CB        55.4290   14.7510    3.7560 C.3   181  SER181      0.2089
     43  OG        54.4430   14.9710    4.7370 O.3   181  SER181     -0.2183
     44  N         53.3350   19.4260    4.2140 N.3   183  GLY183     -0.1210
     45  CA        52.2600   19.8630    5.0830 C.3   183  GLY183      0.1956
     46  C         51.0530   20.5860    4.5370 C.2   183  GLY183      0.2611
     47  O         50.9230   20.8030    3.3370 O.2   183  GLY183     -0.2717
     48  N         50.1800   20.9790    5.4610 N.am  184  TYR184     -0.1976
     49  CA        48.9440   21.6880    5.1560 C.3   184  TYR184      0.1639
     50  C         48.1460   21.9050    6.4570 C.2   184  TYR184      0.2290
     51  O         48.5220   21.4020    7.5260 O.2   184  TYR184     -0.2864
     52  CB        48.1150   20.8570    4.1770 C.3   184  TYR184      0.0560
     53  CG        47.8310   19.4820    4.7040 C.ar  184  TYR184     -0.0198
     54  CD1       46.7280   19.2380    5.5280 C.ar  184  TYR184     -0.0009
     55  CD2       48.7170   18.4340    4.4580 C.ar  184  TYR184     -0.0009
     56  CE1       46.5200   17.9690    6.1090 C.ar  184  TYR184      0.0417
     57  CE2       48.5250   17.1640    5.0270 C.ar  184  TYR184      0.0417
     58  CZ        47.4330   16.9390    5.8510 C.ar  184  TYR184      0.1957
     59  OH        47.2700   15.6990    6.4250 O.3   184  TYR184     -0.2866
     60  N         44.1650   14.3110   -0.5230 N.3   193  ILE193     -0.1245
     61  CA        44.1960   13.5710    0.7380 C.3   193  ILE193      0.1561
     62  C         43.0050   12.6020    0.7800 C.2   193  ILE193      0.2260
     63  O         43.1890   11.4120    0.9720 O.2   193  ILE193     -0.2867
     64  CB        44.1480   14.5300    1.9680 C.3   193  ILE193      0.0252
     65  CG1       45.4260   15.3760    2.0280 C.3   193  ILE193      0.0019
     66  CG2       43.9760   13.7300    3.2660 C.3   193  ILE193      0.0019
     67  CD1       46.6950   14.5780    2.2290 C.3   193  ILE193      0.0001
     68  N         50.5930    4.3470   -0.2440 N.3   202  LEU202     -0.1245
     69  CA        50.5640    5.2800    0.8750 C.3   202  LEU202      0.1561
     70  C         49.0970    5.5870    1.1250 C.2   202  LEU202      0.2260
     71  O         48.4250    6.1810    0.2760 O.2   202  LEU202     -0.2867
     72  CB        51.3000    6.5730    0.5420 C.3   202  LEU202      0.0270
     73  CG        51.1530    7.6810    1.5940 C.3   202  LEU202      0.0019
     74  CD1       51.9680    7.3140    2.8330 C.3   202  LEU202      0.0001
     75  CD2       51.6070    9.0200    1.0190 C.3   202  LEU202      0.0001
     76  N         48.6780    8.6730    9.1980 N.3   206  LEU206     -0.1245
     77  CA        48.4070    8.9350   10.6040 C.3   206  LEU206      0.1561
     78  C         49.4210    8.2410   11.5290 C.2   206  LEU206      0.2260
     79  O         49.9000    8.8130   12.5070 O.2   206  LEU206     -0.2867
     80  CB        47.0060    8.4730   10.9460 C.3   206  LEU206      0.0270
     81  CG        46.4270    9.1980   12.1470 C.3   206  LEU206      0.0019
     82  CD1       45.7490   10.4900   11.6700 C.3   206  LEU206      0.0001
     83  CD2       45.4420    8.2910   12.8580 C.3   206  LEU206      0.0001
     84  N         52.4330    7.4720   10.8600 N.3   208  PHE208     -0.1227
     85  CA        53.7180    8.1990   10.7190 C.3   208  PHE208      0.1736
     86  C         53.6910    9.4340   11.5730 C.2   208  PHE208      0.2595
     87  O         54.6060    9.6900   12.3410 O.2   208  PHE208     -0.2718
     88  CB        53.9400    8.6550    9.2730 C.3   208  PHE208      0.0547
     89  CG        54.4650    7.5940    8.3690 C.ar  208  PHE208     -0.0202
     90  CD1       54.1760    7.6370    7.0100 C.ar  208  PHE208     -0.0042
     91  CD2       55.2640    6.5660    8.8530 C.ar  208  PHE208     -0.0042
     92  CE1       54.6720    6.6730    6.1430 C.ar  208  PHE208     -0.0003
     93  CE2       55.7640    5.6020    8.0010 C.ar  208  PHE208     -0.0003
     94  CZ        55.4730    5.6510    6.6470 C.ar  208  PHE208     -0.0000
     95  N         52.6280   10.2120   11.4190 N.am  209  ARG209     -0.1980
     96  CA        52.4820   11.4620   12.1470 C.3   209  ARG209      0.1597
     97  C         52.4710   11.1490   13.6660 C.2   209  ARG209      0.2287
     98  O         52.9150   11.9420   14.4650 O.2   209  ARG209     -0.2864
     99  CB        51.1990   12.1920   11.6170 C.3   209  ARG209      0.0334
    100  CG        51.1850   11.9920   10.0770 C.3   209  ARG209      0.0492
    101  CD        50.0550   12.6490    9.3320 C.3   209  ARG209      0.2205
    102  NE        50.5670   13.9700    9.0830 N.pl3 209  ARG209     -0.0865
    103  CZ        50.9610   14.4480    7.9130 C.cat 209  ARG209      0.5346
    104  NH1       50.8470   13.7420    6.8120 N.pl3 209  ARG209      0.1354
    105  NH2       51.5720   15.6230    7.8590 N.pl3 209  ARG209      0.1354
    106  N         49.4960   12.8080   -1.2870 N.3   248  LEU248     -0.1245
    107  CA        50.2920   14.0240   -1.1540 C.3   248  LEU248      0.1561
    108  C         50.4170   14.8490   -2.4490 C.2   248  LEU248      0.2260
    109  O         51.1860   15.8120   -2.5060 O.2   248  LEU248     -0.2867
    110  CB        51.6910   13.6650   -0.6530 C.3   248  LEU248      0.0270
    111  CG        51.7550   12.9220    0.6890 C.3   248  LEU248      0.0019
    112  CD1       53.1690   12.4300    0.9530 C.3   248  LEU248      0.0001
    113  CD2       51.2680   13.8320    1.7820 C.3   248  LEU248      0.0001
    114  N         52.8300    7.2300   -5.0220 N.3   276  HIS276     -0.1241
    115  CA        53.8150    7.7280   -4.0760 C.3   276  HIS276      0.1621
    116  C         54.9200    6.6780   -3.9340 C.2   276  HIS276      0.2264
    117  O         54.6520    5.4870   -3.8740 O.2   276  HIS276     -0.2867
    118  CB        53.1400    7.9730   -2.7210 C.3   276  HIS276      0.0745
    119  CG        54.0360    8.5860   -1.6880 C.ar  276  HIS276      0.0817
    120  ND1       54.3240    9.9310   -1.6580 N.ar  276  HIS276     -0.2268
    121  CD2       54.7050    8.0320   -0.6490 C.ar  276  HIS276      0.1154
    122  CE1       55.1340   10.1820   -0.6420 C.ar  276  HIS276      0.1986
    123  NE2       55.3790    9.0470   -0.0150 N.ar  276  HIS276     -0.2212
@<TRIPOS>BOND
     1   114   115    1
     2   115   116    1
     3   115   118    1
     4   116   117    2
     5   118   119    1
     6   109   108    2
     7   108   107    1
     8   119   120   ar
     9   119   121   ar
    10   120   122   ar
    11   106   107    1
    12   107   110    1
    13   110   111    1
    14   121   123   ar
    15   122   123   ar
    16    60    61    1
    17    27    28    1
    18    68    69    1
    19    71    70    2
    20    72    69    1
    21    72    73    1
    22   111   112    1
    23   111   113    1
    24    61    62    1
    25    61    64    1
    26    62    63    2
    27    28    31    1
    28    28    29    1
    29    69    70    1
    30    75    73    1
    31    31    32    1
    32    73    74    1
    33    38    39    1
    34    64    65    1
    35    64    66    1
    36    65    67    1
    37    30    29    2
    38    29    33   am
    39     1     2    1
    40     2     3    1
    41    39    40    1
    42    39    42    1
    43    33    34    1
    44    40    41    2
    45    47    46    2
    46     3     4    2
    47     3     5   am
    48    42    43    1
    49     5     6    1
    50    52    53    1
    51    52    49    1
    52    35    34    1
    53    35    36    2
    54    44    45    1
    55    34    37    1
    56    55    53   ar
    57    55    57   ar
    58    46    45    1
    59    46    48   am
    60    53    54   ar
    61     6     7    1
    62    57    58   ar
    63    49    48    1
    64    49    50    1
    65    54    56   ar
    66    58    56   ar
    67    58    59    1
    68     9     7   am
    69     9    10    1
    70    92    94   ar
    71    92    90   ar
    72     7     8    2
    73    50    51    2
    74    94    93   ar
    75   104   103    1
    76    90    89   ar
    77    10    11    1
    78    24    26   ar
    79    24    22   ar
    80    26    25   ar
    81   105   103    1
    82   103   102    2
    83    93    91   ar
    84    22    21   ar
    85    22    20   ar
    86    21    19   ar
    87    13    11   am
    88    13    14    1
    89    89    91   ar
    90    89    88    1
    91    25    23   ar
    92    11    12    2
    93    20    23   ar
    94    20    18   ar
    95    19    18   ar
    96   102   101    1
    97    76    77    1
    98    88    85    1
    99   101   100    1
   100    18    17    1
   101    14    17    1
   102    14    15    1
   103   100    99    1
   104    15    16    2
   105    77    80    1
   106    77    78    1
   107    85    84    1
   108    85    86    1
   109    80    81    1
   110    95    86   am
   111    95    96    1
   112    78    79    2
   113    86    87    2
   114    99    96    1
   115    82    81    1
   116    96    97    1
   117    81    83    1
   118    97    98    2
