@<TRIPOS>MOLECULE
tmp/1evyA00.pdb
 152 139 0 0 0
SMALL
GASTEIGER

@<TRIPOS>ATOM
      1  N         34.5290   54.5130    3.0720 N.3   208  GLY208     -0.1225
      2  CA        34.5790   54.8130    1.6370 C.3   208  GLY208      0.1811
      3  C         34.6710   53.4730    0.8580 C.2   208  GLY208      0.2280
      4  O         34.0710   53.2270   -0.1680 O.2   208  GLY208     -0.2866
      5  N         31.4720   51.9130    0.7650 N.3   211  VAL211     -0.1231
      6  CA        30.6560   52.7560   -0.1010 C.3   211  VAL211      0.1692
      7  C         30.9170   52.2530   -1.5360 C.2   211  VAL211      0.2591
      8  O         30.0230   51.9110   -2.2830 O.2   211  VAL211     -0.2718
      9  CB        30.8770   54.2920    0.0820 C.3   211  VAL211      0.0266
     10  CG1       30.2800   55.1650   -1.0320 C.3   211  VAL211      0.0020
     11  CG2       30.1350   54.8220    1.2930 C.3   211  VAL211      0.0020
     12  N         32.1760   52.1860   -1.9200 N.am  212  ALA212     -0.1980
     13  CA        32.5070   51.7210   -3.2380 C.3   212  ALA212      0.1597
     14  C         31.9310   50.3460   -3.4880 C.2   212  ALA212      0.2287
     15  O         31.4660   50.0420   -4.5620 O.2   212  ALA212     -0.2864
     16  CB        34.0130   51.7170   -3.4360 C.3   212  ALA212      0.0319
     17  N         28.2390   50.6040   -4.1540 N.3   215  LEU215     -0.1245
     18  CA        27.9220   51.3930   -5.3590 C.3   215  LEU215      0.1561
     19  C         28.0860   50.5320   -6.6600 C.2   215  LEU215      0.2260
     20  O         27.7610   50.9410   -7.7770 O.2   215  LEU215     -0.2867
     21  CB        28.9530   52.5530   -5.3430 C.3   215  LEU215      0.0270
     22  CG        28.5010   53.9740   -5.4930 C.3   215  LEU215      0.0019
     23  CD1       27.1710   54.2630   -4.8280 C.3   215  LEU215      0.0001
     24  CD2       29.5870   54.8830   -4.9700 C.3   215  LEU215      0.0001
     25  N         31.1640   49.1150   -7.5390 N.3   217  MET217     -0.1245
     26  CA        32.5610   49.0840   -7.8940 C.3   217  MET217      0.1570
     27  C         33.2450   47.8380   -7.4660 C.2   217  MET217      0.2261
     28  O         32.6810   47.0270   -6.7180 O.2   217  MET217     -0.2867
     29  CB        33.2390   50.3390   -7.4760 C.3   217  MET217      0.0387
     30  CG        32.4440   51.5320   -7.8350 C.3   217  MET217      0.0595
     31  SD        33.3890   52.8870   -7.1420 S.3   217  MET217     -0.1393
     32  CE        32.8790   54.3250   -8.1020 C.3   217  MET217      0.0692
     33  N         38.7220   49.5470   -7.8810 N.3   221  ALA221     -0.1245
     34  CA        38.3540   50.7970   -7.2440 C.3   221  ALA221      0.1562
     35  C         38.8430   50.8880   -5.7640 C.2   221  ALA221      0.2260
     36  O         39.2000   51.9600   -5.2590 O.2   221  ALA221     -0.2867
     37  CB        36.8620   50.8920   -7.2810 C.3   221  ALA221      0.0290
     38  N         42.4030   51.7410   -5.6610 N.3   224  ALA224     -0.1231
     39  CA        42.6650   53.1490   -5.8810 C.3   224  ALA224      0.1694
     40  C         42.2650   53.9840   -4.6750 C.2   224  ALA224      0.2591
     41  O         42.8870   54.9880   -4.3860 O.2   224  ALA224     -0.2718
     42  CB        41.8800   53.6680   -7.1160 C.3   224  ALA224      0.0304
     43  N         41.1920   53.5880   -3.9670 N.am  225  LEU225     -0.1980
     44  CA        40.7690   54.3280   -2.7460 C.3   225  LEU225      0.1596
     45  C         41.8970   54.2560   -1.6700 C.2   225  LEU225      0.2287
     46  O         42.2780   55.2240   -1.0460 O.2   225  LEU225     -0.2864
     47  CB        39.4880   53.7560   -2.1470 C.3   225  LEU225      0.0297
     48  CG        39.1330   54.4300   -0.8180 C.3   225  LEU225      0.0022
     49  CD1       37.6400   54.5470   -0.7340 C.3   225  LEU225      0.0001
     50  CD2       39.4910   53.3930    0.2140 C.3   225  LEU225      0.0001
     51  N         44.8810   56.5310   -3.0900 N.3   228  ARG228     -0.1245
     52  CA        44.6930   57.9650   -3.0510 C.3   228  ARG228      0.1563
     53  C         44.4680   58.4390   -1.5760 C.2   228  ARG228      0.2260
     54  O         44.8360   59.5690   -1.1320 O.2   228  ARG228     -0.2867
     55  CB        43.5030   58.3980   -3.9390 C.3   228  ARG228      0.0307
     56  CG        43.6910   58.0530   -5.4400 C.3   228  ARG228      0.0489
     57  CD        44.9730   58.5860   -6.0820 C.3   228  ARG228      0.2205
     58  NE        44.9920   60.0230   -5.8680 N.pl3 228  ARG228     -0.0865
     59  CZ        46.0450   60.7440   -6.1630 C.cat 228  ARG228      0.5346
     60  NH1       47.0930   60.2340   -6.7100 N.pl3 228  ARG228      0.1354
     61  NH2       46.0720   62.0250   -5.9180 N.pl3 228  ARG228      0.1354
     62  N         40.2880   64.9260    0.0740 N.3   309  PRO309     -0.2102
     63  CA        39.2020   64.7000   -0.8270 C.3   309  PRO309      0.1504
     64  C         38.2440   63.6080   -0.5170 C.2   309  PRO309      0.2575
     65  O         37.0380   63.8640   -0.4730 O.2   309  PRO309     -0.2718
     66  CB        39.8090   64.5760   -2.2250 C.3   309  PRO309      0.0282
     67  CG        41.1460   65.2720   -2.1020 C.3   309  PRO309      0.0208
     68  CD        41.5500   65.2180   -0.6390 C.3   309  PRO309      0.0893
     69  N         38.7940   62.3860   -0.3280 N.am  310  LEU310     -0.1980
     70  CA        38.0060   61.1990   -0.0370 C.3   310  LEU310      0.1596
     71  C         37.3260   61.3110    1.3300 C.2   310  LEU310      0.2287
     72  O         36.1250   61.0720    1.4560 O.2   310  LEU310     -0.2864
     73  CB        38.8480   59.9300   -0.1180 C.3   310  LEU310      0.0297
     74  CG        39.2490   59.5490   -1.5400 C.3   310  LEU310      0.0022
     75  CD1       40.4900   58.6480   -1.4650 C.3   310  LEU310      0.0001
     76  CD2       38.1050   58.7040   -2.1160 C.3   310  LEU310      0.0001
     77  N         34.3180   63.7220    1.2520 N.3   313  GLN313     -0.1231
     78  CA        33.0900   63.2040    0.6420 C.3   313  GLN313      0.1698
     79  C         32.5280   62.1430    1.5500 C.2   313  GLN313      0.2592
     80  O         31.2970   62.0160    1.6520 O.2   313  GLN313     -0.2718
     81  CB        33.3440   62.5630   -0.7610 C.3   313  GLN313      0.0381
     82  CG        33.8480   63.6130   -1.7880 C.3   313  GLN313      0.0905
     83  CD        32.8680   64.7930   -1.9610 C.2   313  GLN313      0.2608
     84  OE1       31.6580   64.6420   -1.8880 O.2   313  GLN313     -0.2717
     85  NE2       33.3640   65.9990   -2.1740 N.am  313  GLN313     -0.0878
     86  N         33.4330   61.3660    2.1970 N.am  314  ILE314     -0.1980
     87  CA        32.9380   60.3450    3.1150 C.3   314  ILE314      0.1595
     88  C         32.1980   61.0210    4.3000 C.2   314  ILE314      0.2287
     89  O         31.1010   60.6770    4.7300 O.2   314  ILE314     -0.2864
     90  CB        34.0230   59.4190    3.5930 C.3   314  ILE314      0.0276
     91  CG1       34.5160   58.5880    2.4230 C.3   314  ILE314      0.0022
     92  CG2       33.3480   58.4650    4.5790 C.3   314  ILE314      0.0022
     93  CD1       35.9000   57.9870    2.6890 C.3   314  ILE314      0.0001
     94  N         28.8620   62.2060    2.9880 N.3   317  ILE317     -0.1245
     95  CA        27.8950   61.1410    2.8310 C.3   317  ILE317      0.1561
     96  C         27.3810   60.6830    4.1880 C.2   317  ILE317      0.2260
     97  O         26.2080   60.3830    4.3830 O.2   317  ILE317     -0.2867
     98  CB        28.5700   59.9660    2.1840 C.3   317  ILE317      0.0252
     99  CG1       28.9860   60.2850    0.7550 C.3   317  ILE317      0.0019
    100  CG2       27.7130   58.7060    2.2700 C.3   317  ILE317      0.0019
    101  CD1       29.6740   59.0920    0.0840 C.3   317  ILE317      0.0001
    102  N         25.8340   59.3580   -2.4860 N.2   324  PRO324     -0.2584
    103  CA        27.1240   58.7860   -2.7910 C.3   324  PRO324      0.1895
    104  C         27.5780   58.9360   -4.2090 C.2   324  PRO324      0.2359
    105  O         28.7700   59.1530   -4.4690 O.2   324  PRO324     -0.2858
    106  CB        27.0990   57.3380   -2.3290 C.2   324  PRO324      0.0071
    107  CG        25.7880   57.1580   -1.5990 C.2   324  PRO324      0.0180
    108  CD        25.0310   58.4840   -1.6170 C.2   324  PRO324      0.0937
    109  N         28.6090   62.3250   -4.5910 N.3   327  ALA327     -0.1231
    110  CA        29.9030   62.5190   -3.9510 C.3   327  ALA327      0.1694
    111  C         30.9910   62.0110   -4.8860 C.2   327  ALA327      0.2591
    112  O         32.0080   62.6870   -5.0730 O.2   327  ALA327     -0.2718
    113  CB        29.9250   61.7610   -2.6400 C.3   327  ALA327      0.0304
    114  N         30.7590   60.8130   -5.5090 N.am  328  LEU328     -0.1980
    115  CA        31.7690   60.2370   -6.4130 C.3   328  LEU328      0.1596
    116  C         32.0510   61.1630   -7.5820 C.2   328  LEU328      0.2287
    117  O         33.1880   61.4020   -8.0550 O.2   328  LEU328     -0.2864
    118  CB        31.2080   58.9190   -6.9040 C.3   328  LEU328      0.0297
    119  CG        32.2010   57.8630   -7.3590 C.3   328  LEU328      0.0022
    120  CD1       31.6000   57.0510   -8.5110 C.3   328  LEU328      0.0001
    121  CD2       33.5960   58.4270   -7.5810 C.3   328  LEU328      0.0001
    122  N         33.8830   64.1380   -6.4590 N.3   331  LEU331     -0.1231
    123  CA        35.2260   63.6850   -6.2570 C.3   331  LEU331      0.1693
    124  C         35.8770   63.5930   -7.6110 C.2   331  LEU331      0.2591
    125  O         37.0230   63.9710   -7.7730 O.2   331  LEU331     -0.2718
    126  CB        35.1340   62.2510   -5.7560 C.3   331  LEU331      0.0284
    127  CG        35.9750   61.8480   -4.5560 C.3   331  LEU331      0.0019
    128  CD1       36.5820   60.4940   -4.8400 C.3   331  LEU331      0.0001
    129  CD2       37.0830   62.8330   -4.1990 C.3   331  LEU331      0.0001
    130  N         35.1530   63.0540   -8.5990 N.am  332  LEU332     -0.1980
    131  CA        35.7960   62.9210   -9.8960 C.3   332  LEU332      0.1596
    132  C         35.8860   64.1860  -10.6810 C.2   332  LEU332      0.2287
    133  O         36.4310   64.1850  -11.7580 O.2   332  LEU332     -0.2864
    134  CB        35.2890   61.7750  -10.7780 C.3   332  LEU332      0.0297
    135  CG        35.3980   60.4400  -10.0490 C.3   332  LEU332      0.0022
    136  CD1       34.5690   59.3960  -10.7390 C.3   332  LEU332      0.0001
    137  CD2       36.8350   59.9890  -10.0400 C.3   332  LEU332      0.0001
    138  N         37.7280   66.7450  -10.3400 N.3   334  CYS334     -0.1235
    139  CA        39.0210   67.4120  -10.4360 C.3   334  CYS334      0.1677
    140  C         39.6910   67.5050  -11.8230 C.2   334  CYS334      0.2270
    141  O         40.6150   68.2670  -11.9820 O.2   334  CYS334     -0.2867
    142  CB        39.9870   66.7450   -9.4440 C.3   334  CYS334      0.0956
    143  SG        39.9240   64.9440   -9.6450 S.3   334  CYS334     -0.0801
    144  N         45.0670   64.6630  -13.7660 N.3   337  GLN337     -0.1245
    145  CA        46.2180   65.1570  -13.0360 C.3   337  GLN337      0.1566
    146  C         47.3560   64.2010  -12.9450 C.2   337  GLN337      0.2260
    147  O         47.3070   63.0480  -13.3450 O.2   337  GLN337     -0.2867
    148  CB        45.9510   65.5270  -11.5930 C.3   337  GLN337      0.0367
    149  CG        44.4740   65.6170  -11.2180 C.3   337  GLN337      0.0905
    150  CD        44.3890   66.5940  -10.1050 C.2   337  GLN337      0.2608
    151  OE1       44.0050   66.2480   -8.9640 O.2   337  GLN337     -0.2717
    152  NE2       44.8450   67.7970  -10.4560 N.am  337  GLN337     -0.0878
@<TRIPOS>BOND
     1   144   145    1
     2   147   146    2
     3   145   146    1
     4   145   148    1
     5   141   140    2
     6   140   139    1
     7   133   132    2
     8   148   149    1
     9   149   150    1
    10   134   135    1
    11   134   131    1
    12   136   135    1
    13   132   131    1
    14   152   150   am
    15   139   138    1
    16   139   142    1
    17   150   151    2
    18   135   137    1
    19   131   130    1
    20   143   142    1
    21   130   124   am
    22   120   119    1
    23    32    31    1
    24   117   116    2
    25    26    25    1
    26    26    29    1
    27    26    27    1
    28    33    34    1
    29    30    29    1
    30    30    31    1
    31    20    19    2
    32   125   124    2
    33   124   123    1
    34   116   115    1
    35   121   119    1
    36    27    28    2
    37   119   118    1
    38    37    34    1
    39    34    35    1
    40    42    39    1
    41   118   115    1
    42    60    59    1
    43    19    18    1
    44   122   123    1
    45   115   114    1
    46   123   126    1
    47    59    61    1
    48    59    58    2
    49    57    58    1
    50    57    56    1
    51    39    38    1
    52    39    40    1
    53    35    36    2
    54   126   127    1
    55   114   111   am
    56    22    21    1
    57    22    24    1
    58    22    23    1
    59    56    55    1
    60    18    21    1
    61    18    17    1
    62   112   111    2
    63   111   110    1
    64   128   127    1
    65    40    41    2
    66    40    43   am
    67   109   110    1
    68    15    14    2
    69   127   129    1
    70   105   104    2
    71   104   103    1
    72    43    44    1
    73   110   113    1
    74    55    52    1
    75    14    13    1
    76    16    13    1
    77    13    12    1
    78    51    52    1
    79    52    53    1
    80   103   102    1
    81   103   106    1
    82    44    47    1
    83    44    45    1
    84   102   108    2
    85   106   107    2
    86     8     7    2
    87    66    67    1
    88    66    63    1
    89    85    83   am
    90    47    48    1
    91    76    74    1
    92    67    68    1
    93    83    84    2
    94    83    82    1
    95    12     7   am
    96    82    81    1
    97    45    46    2
    98   108   107    1
    99    53    54    2
   100    74    75    1
   101    74    73    1
   102     7     6    1
   103    10     9    1
   104    63    64    1
   105    63    62    1
   106    48    49    1
   107    48    50    1
   108    81    78    1
   109    68    62    1
   110    64    65    2
   111    64    69   am
   112    69    70    1
   113     4     3    2
   114    73    70    1
   115     6     9    1
   116     6     5    1
   117    70    71    1
   118     9    11    1
   119   101    99    1
   120    78    77    1
   121    78    79    1
   122    99    98    1
   123     3     2    1
   124    71    72    2
   125    79    80    2
   126    79    86   am
   127     2     1    1
   128    98   100    1
   129    98    95    1
   130    86    87    1
   131    91    93    1
   132    91    90    1
   133    95    94    1
   134    95    96    1
   135    87    90    1
   136    87    88    1
   137    90    92    1
   138    96    97    2
   139    88    89    2
