@<TRIPOS>MOLECULE
tmp/1evzA01.pdb
 152 139 0 0 0
SMALL
GASTEIGER

@<TRIPOS>ATOM
      1  N         34.9160   54.4010    2.8880 N.3   208  GLY208     -0.1225
      2  CA        34.8850   54.7020    1.4700 C.3   208  GLY208      0.1811
      3  C         35.0910   53.4250    0.6790 C.2   208  GLY208      0.2280
      4  O         34.4740   53.2130   -0.3650 O.2   208  GLY208     -0.2866
      5  N         31.9600   51.9760    0.5790 N.3   211  VAL211     -0.1231
      6  CA        31.0840   52.7180   -0.3180 C.3   211  VAL211      0.1692
      7  C         31.3290   52.2910   -1.7530 C.2   211  VAL211      0.2591
      8  O         30.3910   52.0680   -2.5180 O.2   211  VAL211     -0.2718
      9  CB        31.3150   54.2360   -0.2190 C.3   211  VAL211      0.0266
     10  CG1       30.6750   54.9330   -1.4040 C.3   211  VAL211      0.0020
     11  CG2       30.7250   54.7690    1.0790 C.3   211  VAL211      0.0020
     12  N         32.6020   52.1800   -2.1080 N.am  212  ALA212     -0.1980
     13  CA        32.9930   51.7870   -3.4490 C.3   212  ALA212      0.1597
     14  C         32.3890   50.4390   -3.8140 C.2   212  ALA212      0.2287
     15  O         31.9270   50.2380   -4.9390 O.2   212  ALA212     -0.2864
     16  CB        34.5060   51.7210   -3.5380 C.3   212  ALA212      0.0319
     17  N         28.6850   50.4520   -4.1850 N.3   215  LEU215     -0.1245
     18  CA        28.4380   51.2700   -5.3580 C.3   215  LEU215      0.1561
     19  C         28.6570   50.4570   -6.6360 C.2   215  LEU215      0.2260
     20  O         28.4950   50.9700   -7.7400 O.2   215  LEU215     -0.2867
     21  CB        29.3680   52.4840   -5.3260 C.3   215  LEU215      0.0270
     22  CG        28.8440   53.8310   -5.8210 C.3   215  LEU215      0.0019
     23  CD1       27.5330   54.1720   -5.1390 C.3   215  LEU215      0.0001
     24  CD2       29.8810   54.8980   -5.5330 C.3   215  LEU215      0.0001
     25  N         31.6070   48.9810   -7.6220 N.3   217  MET217     -0.1245
     26  CA        32.9800   48.9500   -8.1120 C.3   217  MET217      0.1570
     27  C         33.7020   47.6990   -7.6390 C.2   217  MET217      0.2261
     28  O         33.2250   47.0020   -6.7450 O.2   217  MET217     -0.2867
     29  CB        33.7200   50.1920   -7.6470 C.3   217  MET217      0.0387
     30  CG        33.0980   51.4650   -8.1510 C.3   217  MET217      0.0595
     31  SD        33.8490   52.8980   -7.4230 S.3   217  MET217     -0.1393
     32  CE        32.9280   54.2000   -8.2360 C.3   217  MET217      0.0692
     33  N         39.1660   49.4300   -8.1200 N.3   221  ALA221     -0.1245
     34  CA        38.6900   50.6110   -7.4220 C.3   221  ALA221      0.1562
     35  C         39.2480   50.7060   -6.0170 C.2   221  ALA221      0.2260
     36  O         39.6090   51.7930   -5.5640 O.2   221  ALA221     -0.2867
     37  CB        37.1790   50.6010   -7.3640 C.3   221  ALA221      0.0290
     38  N         42.9020   51.6210   -5.8300 N.3   224  ALA224     -0.1231
     39  CA        43.0760   53.0380   -6.1110 C.3   224  ALA224      0.1694
     40  C         42.7210   53.8900   -4.8940 C.2   224  ALA224      0.2591
     41  O         43.3690   54.8970   -4.6150 O.2   224  ALA224     -0.2718
     42  CB        42.2210   53.4390   -7.2950 C.3   224  ALA224      0.0304
     43  N         41.6860   53.4840   -4.1700 N.am  225  LEU225     -0.1980
     44  CA        41.2700   54.2290   -2.9990 C.3   225  LEU225      0.1596
     45  C         42.3700   54.1460   -1.9550 C.2   225  LEU225      0.2287
     46  O         42.7130   55.1300   -1.3010 O.2   225  LEU225     -0.2864
     47  CB        39.9630   53.6540   -2.4510 C.3   225  LEU225      0.0297
     48  CG        39.4820   54.2020   -1.1040 C.3   225  LEU225      0.0022
     49  CD1       37.9690   54.3470   -1.0860 C.3   225  LEU225      0.0001
     50  CD2       39.9470   53.2680   -0.0070 C.3   225  LEU225      0.0001
     51  N         45.3290   56.3340   -3.1920 N.3   228  ARG228     -0.1245
     52  CA        45.0340   57.7650   -3.1680 C.3   228  ARG228      0.1563
     53  C         44.7860   58.2470   -1.7570 C.2   228  ARG228      0.2260
     54  O         45.2220   59.3330   -1.3730 O.2   228  ARG228     -0.2867
     55  CB        43.8110   58.0900   -4.0310 C.3   228  ARG228      0.0307
     56  CG        43.9780   57.7830   -5.5150 C.3   228  ARG228      0.0489
     57  CD        45.2030   58.4610   -6.1040 C.3   228  ARG228      0.2205
     58  NE        45.1770   59.9140   -5.9510 N.pl3 228  ARG228     -0.0865
     59  CZ        46.1440   60.7270   -6.3710 C.cat 228  ARG228      0.5346
     60  NH1       47.2210   60.2370   -6.9740 N.pl3 228  ARG228      0.1354
     61  NH2       46.0330   62.0330   -6.1890 N.pl3 228  ARG228      0.1354
     62  N         40.4430   64.9860   -0.1000 N.3   309  PRO309     -0.2102
     63  CA        39.3840   64.6720   -1.0630 C.3   309  PRO309      0.1504
     64  C         38.4870   63.5000   -0.6750 C.2   309  PRO309      0.2575
     65  O         37.2990   63.6730   -0.4110 O.2   309  PRO309     -0.2718
     66  CB        40.1650   64.4100   -2.3450 C.3   309  PRO309      0.0282
     67  CG        41.3170   65.3420   -2.2170 C.3   309  PRO309      0.0208
     68  CD        41.7390   65.1290   -0.7870 C.3   309  PRO309      0.0893
     69  N         39.0590   62.3040   -0.6480 N.am  310  LEU310     -0.1980
     70  CA        38.2990   61.1210   -0.3020 C.3   310  LEU310      0.1596
     71  C         37.6470   61.2250    1.0730 C.2   310  LEU310      0.2287
     72  O         36.4500   60.9850    1.2210 O.2   310  LEU310     -0.2864
     73  CB        39.2050   59.9020   -0.3640 C.3   310  LEU310      0.0297
     74  CG        39.5350   59.4420   -1.7760 C.3   310  LEU310      0.0022
     75  CD1       40.8140   58.6260   -1.7790 C.3   310  LEU310      0.0001
     76  CD2       38.3640   58.6380   -2.3060 C.3   310  LEU310      0.0001
     77  N         34.5810   63.6520    1.0270 N.3   313  GLN313     -0.1231
     78  CA        33.3940   63.0890    0.4060 C.3   313  GLN313      0.1698
     79  C         32.7910   62.0420    1.3270 C.2   313  GLN313      0.2592
     80  O         31.5730   61.9480    1.4630 O.2   313  GLN313     -0.2718
     81  CB        33.7400   62.4360   -0.9340 C.3   313  GLN313      0.0381
     82  CG        34.1030   63.4120   -2.0270 C.3   313  GLN313      0.0905
     83  CD        33.0190   64.4300   -2.2480 C.2   313  GLN313      0.2608
     84  OE1       31.8510   64.0790   -2.3670 O.2   313  GLN313     -0.2717
     85  NE2       33.3950   65.6980   -2.3060 N.am  313  GLN313     -0.0878
     86  N         33.6440   61.2480    1.9620 N.am  314  ILE314     -0.1980
     87  CA        33.1390   60.2230    2.8590 C.3   314  ILE314      0.1595
     88  C         32.4030   60.8920    4.0050 C.2   314  ILE314      0.2287
     89  O         31.4120   60.3690    4.5010 O.2   314  ILE314     -0.2864
     90  CB        34.2710   59.3350    3.4100 C.3   314  ILE314      0.0276
     91  CG1       34.9470   58.5980    2.2500 C.3   314  ILE314      0.0022
     92  CG2       33.7060   58.3390    4.4200 C.3   314  ILE314      0.0022
     93  CD1       36.1040   57.7110    2.6480 C.3   314  ILE314      0.0001
     94  N         28.8610   62.0520    2.5930 N.3   317  ILE317     -0.1245
     95  CA        27.9590   60.9230    2.4560 C.3   317  ILE317      0.1561
     96  C         27.3920   60.5150    3.8050 C.2   317  ILE317      0.2260
     97  O         26.1950   60.2540    3.9330 O.2   317  ILE317     -0.2867
     98  CB        28.6850   59.7180    1.8450 C.3   317  ILE317      0.0252
     99  CG1       29.2000   60.0810    0.4530 C.3   317  ILE317      0.0019
    100  CG2       27.7500   58.5230    1.7820 C.3   317  ILE317      0.0019
    101  CD1       30.0710   59.0220   -0.1720 C.3   317  ILE317      0.0001
    102  N         26.2700   59.0010   -2.8030 N.3   324  PRO324     -0.2116
    103  CA        27.5850   58.4060   -3.0580 C.3   324  PRO324      0.1372
    104  C         28.0500   58.6410   -4.4820 C.2   324  PRO324      0.2244
    105  O         29.2200   58.9360   -4.7210 O.2   324  PRO324     -0.2868
    106  CB        27.3600   56.9280   -2.7740 C.3   324  PRO324      0.0268
    107  CG        26.3190   56.9510   -1.7150 C.3   324  PRO324      0.0207
    108  CD        25.3580   58.0090   -2.2100 C.3   324  PRO324      0.0892
    109  N         29.0100   62.1840   -5.0410 N.3   327  ALA327     -0.1231
    110  CA        30.2790   62.3600   -4.3560 C.3   327  ALA327      0.1694
    111  C         31.4060   61.8690   -5.2560 C.2   327  ALA327      0.2591
    112  O         32.4040   62.5580   -5.4640 O.2   327  ALA327     -0.2718
    113  CB        30.2680   61.5830   -3.0470 C.3   327  ALA327      0.0304
    114  N         31.2310   60.6710   -5.7950 N.am  328  LEU328     -0.1980
    115  CA        32.2230   60.0770   -6.6770 C.3   328  LEU328      0.1596
    116  C         32.5040   61.0000   -7.8640 C.2   328  LEU328      0.2287
    117  O         33.6570   61.2150   -8.2370 O.2   328  LEU328     -0.2864
    118  CB        31.7180   58.7040   -7.1490 C.3   328  LEU328      0.0297
    119  CG        32.5650   57.7930   -8.0450 C.3   328  LEU328      0.0022
    120  CD1       32.5090   58.2660   -9.4820 C.3   328  LEU328      0.0001
    121  CD2       33.9870   57.7700   -7.5450 C.3   328  LEU328      0.0001
    122  N         34.3260   64.0680   -6.9140 N.3   331  LEU331     -0.1231
    123  CA        35.6910   63.6510   -6.6780 C.3   331  LEU331      0.1693
    124  C         36.4730   63.6220   -7.9840 C.2   331  LEU331      0.2591
    125  O         37.5970   64.1130   -8.0610 O.2   331  LEU331     -0.2718
    126  CB        35.6870   62.2580   -6.0540 C.3   331  LEU331      0.0284
    127  CG        36.5610   62.0040   -4.8350 C.3   331  LEU331      0.0019
    128  CD1       36.4490   60.5440   -4.4540 C.3   331  LEU331      0.0001
    129  CD2       37.9960   62.3670   -5.1400 C.3   331  LEU331      0.0001
    130  N         35.8590   63.0540   -9.0150 N.am  332  LEU332     -0.1980
    131  CA        36.5050   62.9180  -10.3100 C.3   332  LEU332      0.1596
    132  C         36.4470   64.1600  -11.1830 C.2   332  LEU332      0.2287
    133  O         37.0140   64.1790  -12.2730 O.2   332  LEU332     -0.2864
    134  CB        35.9020   61.7210  -11.0480 C.3   332  LEU332      0.0297
    135  CG        35.9740   60.4050  -10.2570 C.3   332  LEU332      0.0022
    136  CD1       35.3750   59.2750  -11.0650 C.3   332  LEU332      0.0001
    137  CD2       37.4220   60.0880   -9.9120 C.3   332  LEU332      0.0001
    138  N         37.9340   66.7940  -10.7420 N.3   334  CYS334     -0.1235
    139  CA        39.2470   67.4320  -10.6940 C.3   334  CYS334      0.1677
    140  C         39.9670   67.4620  -12.0410 C.2   334  CYS334      0.2270
    141  O         40.8870   68.2500  -12.2430 O.2   334  CYS334     -0.2867
    142  CB        40.1280   66.7090   -9.6730 C.3   334  CYS334      0.0956
    143  SG        40.2300   64.9100   -9.9300 S.3   334  CYS334     -0.0801
    144  N         45.1310   64.6880  -13.8330 N.3   337  GLN337     -0.1245
    145  CA        46.2500   65.2080  -13.0560 C.3   337  GLN337      0.1566
    146  C         47.4410   64.2640  -13.0720 C.2   337  GLN337      0.2260
    147  O         47.3720   63.1730  -13.6330 O.2   337  GLN337     -0.2867
    148  CB        45.8310   65.4200  -11.6030 C.3   337  GLN337      0.0367
    149  CG        44.6330   66.3160  -11.4110 C.3   337  GLN337      0.0905
    150  CD        44.3160   66.5350   -9.9450 C.2   337  GLN337      0.2608
    151  OE1       44.1670   65.5800   -9.1790 O.2   337  GLN337     -0.2717
    152  NE2       44.2080   67.7990   -9.5460 N.am  337  GLN337     -0.0878
@<TRIPOS>BOND
     1   144   145    1
     2   147   146    2
     3   146   145    1
     4   145   148    1
     5   133   132    2
     6   141   140    2
     7   140   139    1
     8   148   149    1
     9   149   150    1
    10   132   131    1
    11   136   135    1
    12   134   131    1
    13   134   135    1
    14   138   139    1
    15   139   142    1
    16   131   130    1
    17   135   137    1
    18   150   152   am
    19   150   151    2
    20   143   142    1
    21   120   119    1
    22   130   124   am
    23   117   116    2
    24    32    31    1
    25    30    29    1
    26    30    31    1
    27    33    34    1
    28    26    29    1
    29    26    27    1
    30    26    25    1
    31   125   124    2
    32   119   121    1
    33   119   118    1
    34   124   123    1
    35   116   115    1
    36    20    19    2
    37    27    28    2
    38    34    37    1
    39    34    35    1
    40    42    39    1
    41   118   115    1
    42    60    59    1
    43   122   123    1
    44   123   126    1
    45   115   114    1
    46    19    18    1
    47    59    61    1
    48    59    58    2
    49    39    38    1
    50    39    40    1
    51    57    58    1
    52    57    56    1
    53   126   127    1
    54    35    36    2
    55    22    24    1
    56    22    21    1
    57    22    23    1
    58   114   111   am
    59    56    55    1
    60   112   111    2
    61    18    21    1
    62    18    17    1
    63   111   110    1
    64   129   127    1
    65   109   110    1
    66    15    14    2
    67    40    41    2
    68    40    43   am
    69   127   128    1
    70   105   104    2
    71   104   103    1
    72   110   113    1
    73    43    44    1
    74    55    52    1
    75    14    13    1
    76    16    13    1
    77    13    12    1
    78    51    52    1
    79    52    53    1
    80   103   102    1
    81   103   106    1
    82    44    47    1
    83    44    45    1
    84   102   108    1
    85   106   107    1
    86     8     7    2
    87    47    48    1
    88    84    83    2
    89    66    67    1
    90    66    63    1
    91    85    83   am
    92    76    74    1
    93    83    82    1
    94    67    68    1
    95   108   107    1
    96    12     7   am
    97    82    81    1
    98    45    46    2
    99    75    74    1
   100    74    73    1
   101    53    54    2
   102     7     6    1
   103    10     9    1
   104    48    49    1
   105    48    50    1
   106    63    64    1
   107    63    62    1
   108    81    78    1
   109    68    62    1
   110    64    69   am
   111    64    65    2
   112    69    70    1
   113     4     3    2
   114    73    70    1
   115     6     9    1
   116     6     5    1
   117    70    71    1
   118     9    11    1
   119   101    99    1
   120    78    77    1
   121    78    79    1
   122    99    98    1
   123     3     2    1
   124    71    72    2
   125    79    80    2
   126    79    86   am
   127     2     1    1
   128   100    98    1
   129    98    95    1
   130    86    87    1
   131    91    93    1
   132    91    90    1
   133    95    94    1
   134    95    96    1
   135    87    90    1
   136    87    88    1
   137    90    92    1
   138    96    97    2
   139    88    89    2
