@<TRIPOS>MOLECULE
tmp/1evzA00.pdb
 180 179 0 0 0
SMALL
GASTEIGER

@<TRIPOS>ATOM
      1  N         42.4450   48.6410   29.2870 N.3    14  GLY14      -0.1210
      2  CA        41.6180   48.5440   28.0990 C.3    14  GLY14       0.1956
      3  C         41.2490   47.0770   27.9740 C.2    14  GLY14       0.2613
      4  O         42.0510   46.2560   27.5270 O.2    14  GLY14      -0.2717
      5  N         40.0330   46.7420   28.3830 N.am   15  SER15      -0.1938
      6  CA        39.5820   45.3630   28.3570 C.3    15  SER15       0.2055
      7  C         38.8720   44.9430   27.0790 C.2    15  SER15       0.2644
      8  O         38.1080   43.9800   27.0800 O.2    15  SER15      -0.2714
      9  CB        38.6700   45.1100   29.5550 C.3    15  SER15       0.2130
     10  OG        37.5830   46.0150   29.5470 O.3    15  SER15      -0.2179
     11  N         39.1150   45.6570   25.9890 N.am   16  GLY16      -0.1939
     12  CA        38.4770   45.2910   24.7380 C.3    16  GLY16       0.2014
     13  C         39.2440   44.1980   24.0120 C.2    16  GLY16       0.2639
     14  O         40.1520   43.5750   24.5670 O.2    16  GLY16      -0.2714
     15  N         38.8870   43.9740   22.7550 N.am   17  ALA17      -0.1963
     16  CA        39.5390   42.9560   21.9490 C.3    17  ALA17       0.1728
     17  C         41.0410   43.1750   21.7740 C.2    17  ALA17       0.2616
     18  O         41.8440   42.3010   22.0950 O.2    17  ALA17      -0.2715
     19  CB        38.8770   42.8860   20.5950 C.3    17  ALA17       0.0334
     20  N         41.4250   44.3390   21.2650 N.am   18  PHE18      -0.1960
     21  CA        42.8330   44.6130   21.0310 C.3    18  PHE18       0.1771
     22  C         43.6830   44.5490   22.2960 C.2    18  PHE18       0.2620
     23  O         44.7950   44.0090   22.2780 O.2    18  PHE18      -0.2715
     24  CB        43.0180   45.9790   20.3580 C.3    18  PHE18       0.0574
     25  CG        44.3570   46.1400   19.6900 C.ar   18  PHE18      -0.0200
     26  CD1       45.0270   47.3510   19.7260 C.ar   18  PHE18      -0.0042
     27  CD2       44.9620   45.0640   19.0450 C.ar   18  PHE18      -0.0042
     28  CE1       46.2830   47.4900   19.1320 C.ar   18  PHE18      -0.0003
     29  CE2       46.2160   45.1940   18.4500 C.ar   18  PHE18      -0.0003
     30  CZ        46.8760   46.4060   18.4940 C.ar   18  PHE18      -0.0000
     31  N         43.1630   45.1060   23.3860 N.am   19  GLY19      -0.1954
     32  CA        43.8890   45.0890   24.6430 C.3    19  GLY19       0.1869
     33  C         44.0860   43.6600   25.1090 C.2    19  GLY19       0.2309
     34  O         45.1680   43.2830   25.5750 O.2    19  GLY19      -0.2863
     35  N         43.0820   45.7290   33.0940 N.3    36  TRP36      -0.1227
     36  CA        42.1190   46.5310   33.8240 C.3    36  TRP36       0.1737
     37  C         40.7940   46.6990   33.0880 C.2    36  TRP36       0.2595
     38  O         40.7450   47.1140   31.9280 O.2    36  TRP36      -0.2718
     39  CB        42.7010   47.9120   34.1460 C.3    36  TRP36       0.0564
     40  CG        41.7630   48.7420   34.9600 C.ar   36  TRP36       0.0003
     41  CD1       41.5870   48.6950   36.3130 C.ar   36  TRP36       0.0946
     42  CD2       40.7680   49.6410   34.4590 C.ar   36  TRP36       0.0152
     43  NE1       40.5390   49.4980   36.6830 N.ar   36  TRP36      -0.2442
     44  CE2       40.0170   50.0900   35.5640 C.ar   36  TRP36       0.0810
     45  CE3       40.4340   50.1050   33.1790 C.ar   36  TRP36       0.0012
     46  CZ2       38.9490   50.9820   35.4300 C.ar   36  TRP36       0.0191
     47  CZ3       39.3720   50.9910   33.0460 C.ar   36  TRP36       0.0001
     48  CH2       38.6430   51.4190   34.1660 C.ar   36  TRP36       0.0015
     49  N         39.7170   46.3580   33.7770 N.am   37  HIS37      -0.1961
     50  CA        38.3800   46.4960   33.2300 C.3    37  HIS37       0.1787
     51  C         37.6590   47.3050   34.2910 C.2    37  HIS37       0.2620
     52  O         38.1360   47.3930   35.4240 O.2    37  HIS37      -0.2715
     53  CB        37.7300   45.1300   33.0680 C.3    37  HIS37       0.0785
     54  CG        36.3230   45.1920   32.5740 C.ar   37  HIS37       0.0821
     55  ND1       35.9800   45.7800   31.3780 N.ar   37  HIS37      -0.2267
     56  CD2       35.1680   44.7250   33.1080 C.ar   37  HIS37       0.1154
     57  CE1       34.6760   45.6720   31.1920 C.ar   37  HIS37       0.1986
     58  NE2       34.1610   45.0350   32.2300 N.ar   37  HIS37      -0.2212
     59  N         36.5230   47.8990   33.9490 N.am   38  MET38      -0.1977
     60  CA        35.8170   48.7050   34.9320 C.3    38  MET38       0.1605
     61  C         34.7410   47.9650   35.7190 C.2    38  MET38       0.2287
     62  O         34.7450   48.0140   36.9450 O.2    38  MET38      -0.2864
     63  CB        35.2280   49.9500   34.2710 C.3    38  MET38       0.0413
     64  CG        34.2090   49.6810   33.1930 C.3    38  MET38       0.0598
     65  SD        33.6070   51.2360   32.5260 S.3    38  MET38      -0.1393
     66  CE        32.7290   51.9050   33.9470 C.3    38  MET38       0.0692
     67  N         34.5500   40.9250   25.0910 N.3    55  PHE55      -0.1241
     68  CA        35.0440   41.5070   23.8520 C.3    55  PHE55       0.1605
     69  C         35.9110   40.6330   22.9630 C.2    55  PHE55       0.2264
     70  O         36.3200   41.0640   21.8870 O.2    55  PHE55      -0.2867
     71  CB        35.7750   42.8120   24.1750 C.3    55  PHE55       0.0534
     72  CG        34.9790   43.7380   25.0530 C.ar   55  PHE55      -0.0203
     73  CD1       35.3360   43.9340   26.3870 C.ar   55  PHE55      -0.0042
     74  CD2       33.8410   44.3740   24.5610 C.ar   55  PHE55      -0.0042
     75  CE1       34.5700   44.7460   27.2220 C.ar   55  PHE55      -0.0003
     76  CE2       33.0680   45.1880   25.3870 C.ar   55  PHE55      -0.0003
     77  CZ        33.4340   45.3750   26.7230 C.ar   55  PHE55      -0.0000
     78  N         44.7400   50.9840   25.9800 N.3    84  VAL84      -0.1231
     79  CA        43.9300   50.6240   24.8280 C.3    84  VAL84       0.1692
     80  C         42.4730   50.9810   25.0940 C.2    84  VAL84       0.2592
     81  O         41.5530   50.3100   24.6220 O.2    84  VAL84      -0.2718
     82  CB        44.0480   49.1230   24.5140 C.3    84  VAL84       0.0266
     83  CG1       43.7110   48.8690   23.0520 C.3    84  VAL84       0.0020
     84  CG2       45.4510   48.6400   24.8260 C.3    84  VAL84       0.0020
     85  N         42.2820   52.0470   25.8650 N.am   85  ILE85      -0.1966
     86  CA        40.9530   52.5450   26.1980 C.3    85  ILE85       0.1712
     87  C         40.4490   53.3980   25.0400 C.2    85  ILE85       0.2458
     88  O         41.1970   54.1980   24.4780 O.2    85  ILE85      -0.2730
     89  CB        40.9880   53.4320   27.4710 C.3    85  ILE85       0.0289
     90  CG1       41.4940   52.6210   28.6630 C.3    85  ILE85       0.0022
     91  CG2       39.6020   53.9820   27.7650 C.3    85  ILE85       0.0023
     92  CD1       41.8260   53.4520   29.8670 C.3    85  ILE85       0.0001
     93  N         39.1760   53.2360   24.6600 N.am   86  PRO86      -0.2727
     94  CA        38.6610   54.0460   23.5520 C.3    86  PRO86       0.1402
     95  C         38.9560   55.5320   23.7910 C.2    86  PRO86       0.2269
     96  O         38.9010   56.0220   24.9250 O.2    86  PRO86      -0.2865
     97  CB        37.1660   53.7290   23.5640 C.3    86  PRO86       0.0296
     98  CG        37.1350   52.3130   24.0210 C.3    86  PRO86       0.0237
     99  CD        38.1460   52.3090   25.1590 C.3    86  PRO86       0.0939
    100  N         36.8970   57.7940   26.1500 N.3    89  PHE89      -0.1241
    101  CA        36.9340   57.5590   27.5860 C.3    89  PHE89       0.1605
    102  C         38.3240   57.7690   28.1800 C.2    89  PHE89       0.2264
    103  O         38.4920   57.7800   29.3990 O.2    89  PHE89      -0.2867
    104  CB        36.4540   56.1440   27.8880 C.3    89  PHE89       0.0534
    105  CG        35.1560   55.7990   27.2250 C.ar   89  PHE89      -0.0203
    106  CD1       35.1170   54.8860   26.1730 C.ar   89  PHE89      -0.0042
    107  CD2       33.9700   56.4150   27.6240 C.ar   89  PHE89      -0.0042
    108  CE1       33.9160   54.5910   25.5220 C.ar   89  PHE89      -0.0003
    109  CE2       32.7620   56.1300   26.9790 C.ar   89  PHE89      -0.0003
    110  CZ        32.7350   55.2150   25.9250 C.ar   89  PHE89      -0.0000
    111  N         48.0530   52.3320   22.5320 N.3   115  CYS115     -0.1221
    112  CA        47.5050   51.4640   21.4990 C.3   115  CYS115      0.1808
    113  C         46.1500   51.9560   21.0230 C.2   115  CYS115      0.2602
    114  O         45.6150   51.4640   20.0340 O.2   115  CYS115     -0.2717
    115  CB        47.3760   50.0480   22.0440 C.3   115  CYS115      0.0970
    116  SG        48.8950   49.4940   22.7760 S.3   115  CYS115     -0.0800
    117  N         45.5900   52.9190   21.7440 N.am  116  THR116     -0.1939
    118  CA        44.3060   53.4820   21.3770 C.3   116  THR116      0.2028
    119  C         44.4830   54.2180   20.0620 C.2   116  THR116      0.2642
    120  O         45.5770   54.6860   19.7460 O.2   116  THR116     -0.2714
    121  CB        43.8170   54.4560   22.4400 C.3   116  THR116      0.1808
    122  OG1       43.7400   53.7770   23.6960 O.3   116  THR116     -0.2208
    123  CG2       42.4480   55.0000   22.0760 C.3   116  THR116      0.0379
    124  N         43.4060   54.3130   19.2930 N.am  117  LYS117     -0.1977
    125  CA        43.4550   54.9790   18.0040 C.3   117  LYS117      0.1596
    126  C         42.2080   55.8270   17.7740 C.2   117  LYS117      0.2287
    127  O         41.0900   55.3810   18.0200 O.2   117  LYS117     -0.2864
    128  CB        43.5910   53.9310   16.8950 C.3   117  LYS117      0.0298
    129  CG        44.7860   52.9830   17.0680 C.3   117  LYS117      0.0038
    130  CD        44.9200   51.9980   15.8990 C.3   117  LYS117      0.0206
    131  CE        46.1710   51.1210   16.0350 C.3   117  LYS117      0.1093
    132  NZ        46.3070   50.0970   14.9420 N.3   117  LYS117     -0.1314
    133  N         47.1380   44.9560   12.4750 N.3   147  SER147     -0.1202
    134  CA        46.9990   43.9630   13.5220 C.3   147  SER147      0.2020
    135  C         45.5800   43.6460   13.9660 C.2   147  SER147      0.2619
    136  O         45.1390   44.1200   15.0110 O.2   147  SER147     -0.2717
    137  CB        47.8100   44.4050   14.7430 C.3   147  SER147      0.2103
    138  OG        47.4080   45.6900   15.1920 O.3   147  SER147     -0.2182
    139  N         44.8610   42.8380   13.1930 N.am  148  PHE148     -0.1961
    140  CA        43.5120   42.4660   13.5970 C.3   148  PHE148      0.1771
    141  C         43.6250   41.7060   14.9150 C.2   148  PHE148      0.2619
    142  O         44.4030   40.7510   15.0360 O.2   148  PHE148     -0.2715
    143  CB        42.8380   41.5980   12.5300 C.3   148  PHE148      0.0574
    144  CG        42.0620   42.3890   11.5130 C.ar  148  PHE148     -0.0200
    145  CD1       41.5310   41.7670   10.3850 C.ar  148  PHE148     -0.0042
    146  CD2       41.8560   43.7620   11.6840 C.ar  148  PHE148     -0.0042
    147  CE1       40.8080   42.5030    9.4370 C.ar  148  PHE148     -0.0003
    148  CE2       41.1350   44.5080   10.7450 C.ar  148  PHE148     -0.0003
    149  CZ        40.6110   43.8770    9.6210 C.ar  148  PHE148     -0.0000
    150  N         42.8510   42.1510   15.9010 N.am  149  ALA149     -0.1977
    151  CA        42.8600   41.5620   17.2350 C.3   149  ALA149      0.1597
    152  C         42.8470   40.0370   17.2710 C.2   149  ALA149      0.2287
    153  O         43.7020   39.4090   17.8870 O.2   149  ALA149     -0.2864
    154  CB        41.6930   42.1090   18.0420 C.3   149  ALA149      0.0319
    155  N         42.5300   55.8640    8.6940 N.3   202  LYS202     -0.1231
    156  CA        42.2500   54.5660    8.0880 C.3   202  LYS202      0.1693
    157  C         40.7790   54.1490    8.2060 C.2   202  LYS202      0.2592
    158  O         40.2050   53.6200    7.2550 O.2   202  LYS202     -0.2718
    159  CB        43.1300   53.4740    8.7070 C.3   202  LYS202      0.0285
    160  CG        42.6700   53.0280   10.0840 C.3   202  LYS202      0.0035
    161  CD        43.4380   51.8290   10.6040 C.3   202  LYS202      0.0206
    162  CE        42.7620   51.3020   11.8580 C.3   202  LYS202      0.1093
    163  NZ        43.4330   50.1220   12.4690 N.3   202  LYS202     -0.1314
    164  N         40.1710   54.3860    9.3660 N.am  203  ASN203     -0.1974
    165  CA        38.7760   54.0010    9.5790 C.3   203  ASN203      0.1688
    166  C         37.8180   54.7420    8.6720 C.2   203  ASN203      0.2292
    167  O         36.8460   54.1600    8.2030 O.2   203  ASN203     -0.2864
    168  CB        38.3650   54.2140   11.0400 C.3   203  ASN203      0.1181
    169  CG        39.1730   53.3660   11.9990 C.2   203  ASN203      0.2629
    170  OD1       39.2750   52.1510   11.8370 O.2   203  ASN203     -0.2716
    171  ND2       39.7540   54.0040   13.0040 N.am  203  ASN203     -0.0877
    172  N         33.9070   52.9490   13.8620 N.3   289  GLU289     -0.1245
    173  CA        34.9580   53.9160   14.1680 C.3   289  GLU289      0.1567
    174  C         35.0590   54.9900   13.0870 C.2   289  GLU289      0.2260
    175  O         35.1540   56.1820   13.3840 O.2   289  GLU289     -0.2867
    176  CB        36.3090   53.2140   14.2980 C.3   289  GLU289      0.0388
    177  CG        36.3350   52.0750   15.3060 C.3   289  GLU289      0.1160
    178  CD        37.3500   52.2850   16.4190 C.2   289  GLU289      0.3649
    179  OE1       38.5420   52.5080   16.1090 O.co2 289  GLU289     -0.2457
    180  OE2       36.9550   52.2190   17.6050 O.co2 289  GLU289     -0.2457
@<TRIPOS>BOND
     1   158   157    2
     2   156   157    1
     3   156   155    1
     4   156   159    1
     5   167   166    2
     6   157   164   am
     7   166   165    1
     8   159   160    1
     9   164   165    1
    10   147   149   ar
    11   147   145   ar
    12   165   168    1
    13   149   148   ar
    14   160   161    1
    15   145   144   ar
    16   161   162    1
    17   148   146   ar
    18   168   169    1
    19   144   146   ar
    20   144   143    1
    21   170   169    2
    22   162   163    1
    23   169   171   am
    24   133   134    1
    25   143   140    1
    26   174   175    2
    27   174   173    1
    28   139   140    1
    29   139   135   am
    30   134   135    1
    31   134   137    1
    32   140   141    1
    33   172   173    1
    34   135   136    2
    35   173   176    1
    36   176   177    1
    37   137   138    1
    38   141   142    2
    39   141   150   am
    40   132   131    1
    41   177   178    1
    42   130   131    1
    43   130   129    1
    44   150   151    1
    45   179   178   ar
    46   178   180   ar
    47   128   129    1
    48   128   125    1
    49   151   152    1
    50   151   154    1
    51   152   153    2
    52   126   125    1
    53   126   127    2
    54   125   124    1
    55    29    30   ar
    56    29    27   ar
    57    30    28   ar
    58    27    25   ar
    59    28    26   ar
    60   124   119   am
    61    25    26   ar
    62    25    24    1
    63   120   119    2
    64   114   113    2
    65   119   118    1
    66    24    21    1
    67    19    16    1
    68   113   112    1
    69   113   117   am
    70    21    20    1
    71    21    22    1
    72    20    17   am
    73   118   117    1
    74   118   121    1
    75   112   115    1
    76   112   111    1
    77    17    16    1
    78    17    18    2
    79    70    69    2
    80    16    15    1
    81   115   116    1
    82   123   121    1
    83    23    22    2
    84    22    31   am
    85   121   122    1
    86    15    13   am
    87    69    68    1
    88    83    82    1
    89    31    32    1
    90    94    97    1
    91    94    95    1
    92    94    93    1
    93    97    98    1
    94    95    96    2
    95    68    71    1
    96    68    67    1
    97    13    14    2
    98    13    12    1
    99    98    99    1
   100    71    72    1
   101    88    87    2
   102    82    84    1
   103    82    79    1
   104    74    72   ar
   105    74    76   ar
   106    81    80    2
   107    32    33    1
   108    93    87   am
   109    93    99    1
   110    12    11    1
   111    79    80    1
   112    79    78    1
   113    87    86    1
   114    72    73   ar
   115    80    85   am
   116    33    34    2
   117    76    77   ar
   118   108   110   ar
   119   108   106   ar
   120    85    86    1
   121   110   109   ar
   122    11     7   am
   123   100   101    1
   124   106   105   ar
   125    86    89    1
   126    73    75   ar
   127    77    75   ar
   128   109   107   ar
   129     7     8    2
   130     7     6    1
   131   105   107   ar
   132   105   104    1
   133    89    91    1
   134    89    90    1
   135     4     3    2
   136   101   104    1
   137   101   102    1
   138     3     2    1
   139     3     5   am
   140     2     1    1
   141   102   103    2
   142     6     5    1
   143     6     9    1
   144    90    92    1
   145    10     9    1
   146    57    55   ar
   147    57    58   ar
   148    55    54   ar
   149    38    37    2
   150    58    56   ar
   151    65    64    1
   152    65    66    1
   153    54    53    1
   154    54    56   ar
   155    47    45   ar
   156    47    48   ar
   157    53    50    1
   158    37    49   am
   159    37    36    1
   160    35    36    1
   161    45    42   ar
   162    64    63    1
   163    50    49    1
   164    50    51    1
   165    36    39    1
   166    59    51   am
   167    59    60    1
   168    39    40    1
   169    48    46   ar
   170    63    60    1
   171    51    52    2
   172    42    40   ar
   173    42    44   ar
   174    60    61    1
   175    40    41   ar
   176    46    44   ar
   177    44    43   ar
   178    61    62    2
   179    41    43   ar
