@<TRIPOS>MOLECULE
tmp/1ew8B00.pdb
 88 83 0 0 0
SMALL
GASTEIGER

@<TRIPOS>ATOM
      1  N         57.9040   17.0830   26.5250 N.3    51  ASP51      -0.1239
      2  CA        56.9250   17.4980   27.5210 C.3    51  ASP51       0.1674
      3  C         57.6460   17.9980   28.7750 C.2    51  ASP51       0.2266
      4  O         58.4310   17.2610   29.3450 O.2    51  ASP51      -0.2867
      5  CB        55.9400   16.3900   27.8670 C.3    51  ASP51       0.1410
      6  CG        54.6290   16.9630   28.3870 C.2    51  ASP51       0.3668
      7  OD1       54.6620   17.6760   29.4090 O.co2  51  ASP51      -0.2456
      8  OD2       53.6020   16.7630   27.7150 O.co2  51  ASP51      -0.2456
      9  N         48.2830   23.1600   31.1070 N.3   101  ASP101     -0.1225
     10  CA        48.4380   21.7150   31.1480 C.3   101  ASP101      0.1805
     11  C         48.7650   21.2490   29.7400 C.2   101  ASP101      0.2598
     12  O         48.7740   22.1030   28.8360 O.2   101  ASP101     -0.2718
     13  CB        47.2440   21.0180   31.7280 C.3   101  ASP101      0.1424
     14  CG        46.1480   20.6520   30.7680 C.2   101  ASP101      0.3668
     15  OD1       45.4080   19.6790   31.0600 O.co2 101  ASP101     -0.2456
     16  OD2       45.9910   21.2950   29.7180 O.co2 101  ASP101     -0.2456
     17  N         49.1000   19.9870   29.5160 N.am  102  SER102     -0.1952
     18  CA        49.4760   19.6360   28.1420 C.3   102  SER102      0.1924
     19  C         48.3180   19.5240   27.1990 C.2   102  SER102      0.2314
     20  O         48.4910   19.4570   25.9720 O.2   102  SER102     -0.2863
     21  CB        50.4820   18.5600   28.0140 C.3   102  SER102      0.2116
     22  OG        50.1110   17.3410   28.6040 O.3   102  SER102     -0.2180
     23  N         47.2320    9.9120   25.8450 N.3   153  ASP153     -0.1239
     24  CA        47.7810   11.0590   26.5310 C.3   153  ASP153      0.1674
     25  C         47.5930   12.3450   25.7690 C.2   153  ASP153      0.2266
     26  O         47.5350   12.3740   24.5390 O.2   153  ASP153     -0.2867
     27  CB        49.1550   10.8680   27.0860 C.3   153  ASP153      0.1410
     28  CG        49.4500   11.8630   28.2150 C.2   153  ASP153      0.3668
     29  OD1       48.4810   12.2210   28.9190 O.co2 153  ASP153     -0.2456
     30  OD2       50.6100   12.2940   28.3040 O.co2 153  ASP153     -0.2456
     31  N         40.5630   15.5370   28.6480 N.3   166  ARG166     -0.1245
     32  CA        41.6450   14.6320   28.3470 C.3   166  ARG166      0.1563
     33  C         41.5300   13.2930   29.0660 C.2   166  ARG166      0.2260
     34  O         42.1860   12.3200   28.6640 O.2   166  ARG166     -0.2867
     35  CB        42.9970   15.2820   28.7240 C.3   166  ARG166      0.0307
     36  CG        43.0540   15.6220   30.2130 C.3   166  ARG166      0.0489
     37  CD        44.3370   16.3060   30.5820 C.3   166  ARG166      0.2205
     38  NE        45.4480   15.3780   30.7830 N.pl3 166  ARG166     -0.0865
     39  CZ        46.7240   15.7680   30.8300 C.cat 166  ARG166      0.5346
     40  NH1       47.0280   17.0320   30.5430 N.pl3 166  ARG166      0.1354
     41  NH2       47.6790   14.9210   31.1690 N.pl3 166  ARG166      0.1354
     42  N         58.4390   15.4630   31.4460 N.3   327  ASP327     -0.1225
     43  CA        57.4150   16.0990   32.2230 C.3   327  ASP327      0.1805
     44  C         56.9540   15.2400   33.3890 C.2   327  ASP327      0.2597
     45  O         56.8080   15.7120   34.5130 O.2   327  ASP327     -0.2718
     46  CB        56.2150   16.5010   31.3400 C.3   327  ASP327      0.1424
     47  CG        55.0000   16.8410   32.1810 C.2   327  ASP327      0.3668
     48  OD1       54.8580   18.0080   32.5880 O.co2 327  ASP327     -0.2456
     49  OD2       54.2270   15.9210   32.4970 O.co2 327  ASP327     -0.2456
     50  N         56.7690   13.9480   33.1300 N.am  328  LYS328     -0.1979
     51  CA        56.3280   13.0220   34.1430 C.3   328  LYS328      0.1596
     52  C         57.3310   12.7350   35.2270 C.2   328  LYS328      0.2287
     53  O         56.9500   12.4740   36.3830 O.2   328  LYS328     -0.2864
     54  CB        55.7140   11.7640   33.5810 C.3   328  LYS328      0.0298
     55  CG        55.1360   11.8680   32.1770 C.3   328  LYS328      0.0038
     56  CD        54.3670   10.5940   31.8270 C.3   328  LYS328      0.0206
     57  CE        53.6530   10.7240   30.4970 C.3   328  LYS328      0.1093
     58  NZ        52.2230   11.1280   30.6630 N.3   328  LYS328     -0.1314
     59  N         57.4700   15.8320   37.5480 N.3   331  HIS331     -0.1241
     60  CA        56.3390   15.7660   38.4750 C.3   331  HIS331      0.1621
     61  C         56.7150   14.8640   39.6690 C.2   331  HIS331      0.2264
     62  O         56.3830   15.1570   40.8090 O.2   331  HIS331     -0.2867
     63  CB        55.1300   15.1130   37.7690 C.3   331  HIS331      0.0745
     64  CG        54.3280   16.0500   36.9360 C.ar  331  HIS331      0.0817
     65  ND1       53.8300   17.2430   37.4460 N.ar  331  HIS331     -0.2268
     66  CD2       53.9600   16.0190   35.6350 C.ar  331  HIS331      0.1154
     67  CE1       53.1890   17.8820   36.4940 C.ar  331  HIS331      0.1986
     68  NE2       53.2450   17.1590   35.3790 N.ar  331  HIS331     -0.2212
     69  N         55.1050   23.4040   27.9500 N.3   370  HIS370     -0.1241
     70  CA        55.1340   24.3630   29.0560 C.3   370  HIS370      0.1621
     71  C         56.4280   24.0470   29.8680 C.2   370  HIS370      0.2264
     72  O         57.0480   23.0290   29.5250 O.2   370  HIS370     -0.2867
     73  CB        53.9250   24.1280   29.9780 C.3   370  HIS370      0.0745
     74  CG        53.7420   22.6770   30.3610 C.ar  370  HIS370      0.0817
     75  ND1       54.5100   22.0430   31.2990 N.ar  370  HIS370     -0.2268
     76  CD2       52.8790   21.7430   29.9070 C.ar  370  HIS370      0.1154
     77  CE1       54.1380   20.7760   31.4200 C.ar  370  HIS370      0.1986
     78  NE2       53.1320   20.5680   30.5820 N.ar  370  HIS370     -0.2212
     79  N         53.6300   22.2930   37.1350 N.3   412  HIS412     -0.1241
     80  CA        54.1580   22.9380   35.9260 C.3   412  HIS412      0.1621
     81  C         54.4030   24.4370   36.3250 C.2   412  HIS412      0.2264
     82  O         53.8830   24.8480   37.3420 O.2   412  HIS412     -0.2867
     83  CB        53.0410   23.0340   34.8600 C.3   412  HIS412      0.0745
     84  CG        52.5860   21.7570   34.2750 C.ar  412  HIS412      0.0817
     85  ND1       51.5410   21.7250   33.3390 N.ar  412  HIS412     -0.2268
     86  CD2       52.9630   20.4710   34.4750 C.ar  412  HIS412      0.1154
     87  CE1       51.3340   20.4720   32.9980 C.ar  412  HIS412      0.1986
     88  NE2       52.1720   19.6930   33.6540 N.ar  412  HIS412     -0.2212
@<TRIPOS>BOND
     1    26    25    2
     2    25    24    1
     3    23    24    1
     4    20    19    2
     5     1     2    1
     6    24    27    1
     7    27    28    1
     8    19    18    1
     9     2     5    1
    10     2     3    1
    11     8     6   ar
    12     5     6    1
    13    69    70    1
    14    21    18    1
    15    21    22    1
    16    18    17    1
    17    28    30   ar
    18    28    29   ar
    19    32    31    1
    20    32    35    1
    21    32    33    1
    22     6     7   ar
    23    34    33    2
    24    35    36    1
    25     3     4    2
    26    12    11    2
    27    70    71    1
    28    70    73    1
    29    17    11   am
    30    72    71    2
    31    16    14   ar
    32    11    10    1
    33    76    74   ar
    34    76    78   ar
    35    73    74    1
    36    36    37    1
    37    74    75   ar
    38    57    58    1
    39    57    56    1
    40    40    39    1
    41    37    38    1
    42    78    77   ar
    43    14    15   ar
    44    14    13    1
    45    38    39    2
    46    39    41    1
    47     9    10    1
    48    10    13    1
    49    75    77   ar
    50    46    47    1
    51    46    43    1
    52    42    43    1
    53    56    55    1
    54    55    54    1
    55    47    49   ar
    56    47    48   ar
    57    43    44    1
    58    87    85   ar
    59    87    88   ar
    60    50    44   am
    61    50    51    1
    62    85    84   ar
    63    44    45    2
    64    54    51    1
    65    88    86   ar
    66    51    52    1
    67    84    86   ar
    68    84    83    1
    69    83    80    1
    70    52    53    2
    71    68    66   ar
    72    68    67   ar
    73    66    64   ar
    74    80    81    1
    75    80    79    1
    76    81    82    2
    77    67    65   ar
    78    64    65   ar
    79    64    63    1
    80    59    60    1
    81    63    60    1
    82    60    61    1
    83    61    62    2
