@<TRIPOS>MOLECULE
tmp/1ewkA00.pdb
 128 122 0 0 0
SMALL
GASTEIGER

@<TRIPOS>ATOM
      1  N          4.8770    5.7600    6.5120 N.3    39  TYR39      -0.1241
      2  CA         6.2830    5.5190    6.8590 C.3    39  TYR39       0.1605
      3  C          6.9920    4.5180    5.9530 C.2    39  TYR39       0.2264
      4  O          8.2170    4.3780    6.0130 O.2    39  TYR39      -0.2867
      5  CB         6.3890    5.0270    8.3010 C.3    39  TYR39       0.0534
      6  CG         6.3400    6.1180    9.3480 C.ar   39  TYR39      -0.0201
      7  CD1        5.3460    7.0960    9.3270 C.ar   39  TYR39      -0.0009
      8  CD2        7.2780    6.1520   10.3820 C.ar   39  TYR39      -0.0009
      9  CE1        5.2870    8.0910   10.3200 C.ar   39  TYR39       0.0417
     10  CE2        7.2260    7.1330   11.3820 C.ar   39  TYR39       0.0417
     11  CZ         6.2350    8.0980   11.3470 C.ar   39  TYR39       0.1957
     12  OH         6.1900    9.0630   12.3330 O.3    39  TYR39      -0.2866
     13  N          7.1680    6.6830    1.3400 N.3    43  ARG43      -0.1245
     14  CA         8.5510    7.1490    1.3530 C.3    43  ARG43       0.1563
     15  C          9.3480    6.4680    0.2540 C.2    43  ARG43       0.2260
     16  O         10.1940    7.0920   -0.3870 O.2    43  ARG43      -0.2867
     17  CB         9.1740    6.9170    2.7380 C.3    43  ARG43       0.0307
     18  CG         8.5530    7.8500    3.7790 C.3    43  ARG43       0.0489
     19  CD         9.0460    7.6670    5.2030 C.3    43  ARG43       0.2205
     20  NE         8.4200    8.6790    6.0570 N.pl3  43  ARG43      -0.0865
     21  CZ         8.5590    8.7580    7.3770 C.cat  43  ARG43       0.5346
     22  NH1        9.3100    7.8760    8.0300 N.pl3  43  ARG43       0.1354
     23  NH2        7.9510    9.7310    8.0440 N.pl3  43  ARG43       0.1354
     24  N         11.7110   -0.3010   11.0980 N.3    75  TRP75      -0.1241
     25  CA        11.8300    0.5440   12.2850 C.3    75  TRP75       0.1605
     26  C         12.4230   -0.2790   13.4240 C.2    75  TRP75       0.2264
     27  O         11.9230   -0.2490   14.5430 O.2    75  TRP75      -0.2867
     28  CB        10.4470    1.0800   12.6770 C.3    75  TRP75       0.0550
     29  CG        10.4580    2.2560   13.6140 C.ar   75  TRP75       0.0003
     30  CD1       10.4790    2.2260   14.9840 C.ar   75  TRP75       0.0946
     31  CD2       10.4270    3.6410   13.2440 C.ar   75  TRP75       0.0152
     32  NE1       10.4580    3.5050   15.4860 N.ar   75  TRP75      -0.2442
     33  CE2       10.4280    4.3930   14.4410 C.ar   75  TRP75       0.0810
     34  CE3       10.3970    4.3180   12.0140 C.ar   75  TRP75       0.0012
     35  CZ2       10.4000    5.7960   14.4450 C.ar   75  TRP75       0.0191
     36  CZ3       10.3690    5.7090   12.0180 C.ar   75  TRP75       0.0001
     37  CH2       10.3720    6.4350   13.2290 C.ar   75  TRP75       0.0015
     38  N         14.4730    6.2910   10.0500 N.3    99  GLY99      -0.1210
     39  CA        13.6630    7.2680   10.7590 C.3    99  GLY99       0.1956
     40  C         13.7890    7.4170   12.2700 C.2    99  GLY99       0.2613
     41  O         13.5130    8.4890   12.8070 O.2    99  GLY99      -0.2717
     42  N         14.1870    6.3540   12.9580 N.am  100  SER100     -0.1938
     43  CA        14.3140    6.3820   14.4100 C.3   100  SER100      0.2055
     44  C         15.7230    6.7610   14.8650 C.2   100  SER100      0.2643
     45  O         16.7070    6.3360   14.2660 O.2   100  SER100     -0.2714
     46  CB        13.9470    5.0070   14.9690 C.3   100  SER100      0.2130
     47  OG        14.2510    4.9160   16.3430 O.3   100  SER100     -0.2179
     48  N         15.8180    7.5510   15.9280 N.am  101  SER101     -0.1949
     49  CA        17.1250    7.9600   16.4430 C.3   101  SER101      0.1924
     50  C         17.9480    6.7510   16.8860 C.2   101  SER101      0.2314
     51  O         19.1240    6.6400   16.5470 O.2   101  SER101     -0.2863
     52  CB        16.9630    8.9380   17.6170 C.3   101  SER101      0.2116
     53  OG        16.5920   10.2320   17.1680 O.3   101  SER101     -0.2180
     54  N         14.0490   12.4030   10.0240 N.3   122  SER122     -0.1202
     55  CA        13.1990   12.3930   11.2230 C.3   122  SER122      0.2020
     56  C         13.8840   12.0540   12.5450 C.2   122  SER122      0.2619
     57  O         13.2360   12.0920   13.5930 O.2   122  SER122     -0.2717
     58  CB        12.0210   11.4360   11.0340 C.3   122  SER122      0.2103
     59  OG        12.4670   10.1220   10.7560 O.3   122  SER122     -0.2182
     60  N         15.1680   11.7070   12.5040 N.am  123  ALA123     -0.1965
     61  CA        15.9200   11.3760   13.7240 C.3   123  ALA123      0.1728
     62  C         16.3170   12.7030   14.3630 C.2   123  ALA123      0.2616
     63  O         17.2110   13.3970   13.8680 O.2   123  ALA123     -0.2715
     64  CB        17.1660   10.5570   13.3700 C.3   123  ALA123      0.0334
     65  N         15.6510   13.0450   15.4610 N.am  124  THR124     -0.1951
     66  CA        15.8630   14.3190   16.1480 C.3   124  THR124      0.1897
     67  C         16.6910   14.3170   17.4350 C.2   124  THR124      0.2313
     68  O         16.9060   15.3700   18.0320 O.2   124  THR124     -0.2863
     69  CB        14.5000   14.9550   16.4890 C.3   124  THR124      0.1794
     70  OG1       13.7020   14.0010   17.2050 O.3   124  THR124     -0.2208
     71  CG2       13.7650   15.3620   15.2250 C.3   124  THR124      0.0378
     72  N         15.6010    8.3440   21.3140 N.3   172  TYR172     -0.1241
     73  CA        14.7070    9.4810   21.0570 C.3   172  TYR172      0.1605
     74  C         13.9820    9.9460   22.3210 C.2   172  TYR172      0.2264
     75  O         14.0990   11.1060   22.7280 O.2   172  TYR172     -0.2867
     76  CB        13.6810    9.1120   19.9800 C.3   172  TYR172      0.0534
     77  CG        12.5040   10.0560   19.8710 C.ar  172  TYR172     -0.0201
     78  CD1       12.6890   11.4070   19.5640 C.ar  172  TYR172     -0.0009
     79  CD2       11.2000    9.5910   20.0500 C.ar  172  TYR172     -0.0009
     80  CE1       11.5960   12.2730   19.4350 C.ar  172  TYR172      0.0417
     81  CE2       10.1010   10.4440   19.9250 C.ar  172  TYR172      0.0417
     82  CZ        10.3070   11.7810   19.6150 C.ar  172  TYR172      0.1957
     83  OH         9.2280   12.6120   19.4680 O.3   172  TYR172     -0.2866
     84  N          7.0570    7.8090   20.8980 N.3   228  GLU228     -0.1231
     85  CA         6.8470    7.3980   19.5230 C.3   228  GLU228      0.1699
     86  C          5.3270    7.3040   19.4230 C.2   228  GLU228      0.2592
     87  O          4.6500    7.1410   20.4360 O.2   228  GLU228     -0.2718
     88  CB         7.4720    6.0260   19.2660 C.3   228  GLU228      0.0402
     89  CG         8.9830    6.0540   19.0450 C.3   228  GLU228      0.1161
     90  CD         9.5480    4.6850   18.7020 C.2   228  GLU228      0.3649
     91  OE1       10.6230    4.6220   18.0670 O.co2 228  GLU228     -0.2457
     92  OE2        8.9220    3.6700   19.0740 O.co2 228  GLU228     -0.2457
     93  N          4.7870    7.4180   18.2150 N.am  229  GLY229     -0.1957
     94  CA         3.3470    7.3390   18.0650 C.3   229  GLY229      0.1869
     95  C          2.7630    6.0600   18.6360 C.2   229  GLY229      0.2309
     96  O          1.7620    6.0990   19.3490 O.2   229  GLY229     -0.2863
     97  N          6.9300   15.0600   18.5330 N.3   254  ASP254     -0.1225
     98  CA         6.7440   14.7970   17.1030 C.3   254  ASP254      0.1805
     99  C          6.4230   13.3570   16.7120 C.2   254  ASP254      0.2598
    100  O          6.0200   13.1050   15.5750 O.2   254  ASP254     -0.2718
    101  CB         7.9640   15.2740   16.3020 C.3   254  ASP254      0.1424
    102  CG         9.1860   14.3940   16.5080 C.2   254  ASP254      0.3668
    103  OD1        9.6890   14.3360   17.6530 O.co2 254  ASP254     -0.2456
    104  OD2        9.6380   13.7620   15.5240 O.co2 254  ASP254     -0.2456
    105  N          6.6160   12.4120   17.6310 N.am  255  GLY255     -0.1957
    106  CA         6.3000   11.0300   17.3180 C.3   255  GLY255      0.1869
    107  C          4.7910   10.9030   17.1500 C.2   255  GLY255      0.2309
    108  O          4.2800    9.9640   16.5280 O.2   255  GLY255     -0.2863
    109  N         -0.3550   12.9150   13.3250 N.3   259  ARG259     -0.1245
    110  CA        -0.4920   11.6250   12.6600 C.3   259  ARG259      0.1563
    111  C         -1.8280   10.9560   12.9470 C.2   259  ARG259      0.2260
    112  O         -2.1710   10.7030   14.1070 O.2   259  ARG259     -0.2867
    113  CB         0.6320   10.6770   13.0900 C.3   259  ARG259      0.0307
    114  CG         2.0410   11.1160   12.6910 C.3   259  ARG259      0.0489
    115  CD         3.0860   10.1920   13.3100 C.3   259  ARG259      0.2205
    116  NE         2.9580    8.8230   12.8200 N.pl3 259  ARG259     -0.0865
    117  CZ         3.4740    7.7590   13.4250 C.cat 259  ARG259      0.5346
    118  NH1        4.1600    7.8950   14.5570 N.pl3 259  ARG259      0.1354
    119  NH2        3.2980    6.5560   12.9010 N.pl3 259  ARG259      0.1354
    120  N          5.9630   13.9260    7.4010 N.3   345  LYS345     -0.1245
    121  CA         7.3510   14.3490    7.2110 C.3   345  LYS345      0.1561
    122  C          7.8440   14.1760    5.7790 C.2   345  LYS345      0.2260
    123  O          9.0490   14.1000    5.5420 O.2   345  LYS345     -0.2867
    124  CB         8.2820   13.5750    8.1540 C.3   345  LYS345      0.0271
    125  CG         8.2150   13.9970    9.6210 C.3   345  LYS345      0.0035
    126  CD         9.3500   13.3350   10.4080 C.3   345  LYS345      0.0206
    127  CE         9.3770   13.7360   11.8820 C.3   345  LYS345      0.1093
    128  NZ         8.2720   13.1320   12.6750 N.3   345  LYS345     -0.1314
@<TRIPOS>BOND
     1    16    15    2
     2    15    14    1
     3    13    14    1
     4    14    17    1
     5    17    18    1
     6    18    19    1
     7    19    20    1
     8   123   122    2
     9   122   121    1
    10     3     4    2
    11     3     2    1
    12    20    21    2
    13     1     2    1
    14     2     5    1
    15   121   120    1
    16   121   124    1
    17    21    22    1
    18    21    23    1
    19   124   125    1
    20     5     6    1
    21     7     6   ar
    22     7     9   ar
    23     6     8   ar
    24   125   126    1
    25    54    55    1
    26    38    39    1
    27     9    11   ar
    28     8    10   ar
    29   126   127    1
    30    59    58    1
    31    39    40    1
    32    58    55    1
    33    24    25    1
    34    55    56    1
    35    11    10   ar
    36    11    12    1
    37   127   128    1
    38    34    36   ar
    39    34    31   ar
    40    36    37   ar
    41    40    41    2
    42    40    42   am
    43    25    28    1
    44    25    26    1
    45    60    56   am
    46    60    61    1
    47    56    57    2
    48   110   111    1
    49   110   113    1
    50   110   109    1
    51    28    29    1
    52   114   113    1
    53   114   115    1
    54   116   115    1
    55   116   117    2
    56   119   117    1
    57   111   112    2
    58    42    43    1
    59    37    35   ar
    60    31    29   ar
    61    31    33   ar
    62    64    61    1
    63    26    27    2
    64   117   118    1
    65    29    30   ar
    66    61    62    1
    67    63    62    2
    68    45    44    2
    69    62    65   am
    70    43    44    1
    71    43    46    1
    72    33    35   ar
    73    33    32   ar
    74    44    48   am
    75    46    47    1
    76    30    32   ar
    77    71    69    1
    78    65    66    1
    79   104   102   ar
    80   100    99    2
    81    48    49    1
    82    66    69    1
    83    66    67    1
    84   101   102    1
    85   101    98    1
    86    49    50    1
    87    49    52    1
    88    69    70    1
    89   102   103   ar
    90   108   107    2
    91    51    50    2
    92    99    98    1
    93    99   105   am
    94    98    97    1
    95   107   106    1
    96    53    52    1
    97   106   105    1
    98    67    68    2
    99    94    93    1
   100    94    95    1
   101    91    90   ar
   102    93    86   am
   103    95    96    2
   104    90    89    1
   105    90    92   ar
   106    89    88    1
   107    88    85    1
   108    86    85    1
   109    86    87    2
   110    80    78   ar
   111    80    82   ar
   112    83    82    1
   113    85    84    1
   114    78    77   ar
   115    82    81   ar
   116    77    76    1
   117    77    79   ar
   118    81    79   ar
   119    76    73    1
   120    73    72    1
   121    73    74    1
   122    74    75    2
