@<TRIPOS>MOLECULE
tmp/1ewmA00.pdb
 150 145 0 0 0
SMALL
GASTEIGER

@<TRIPOS>ATOM
      1  N         15.0050    8.3960   11.2930 N.3    19  GLN19      -0.1245
      2  CA        14.5720    9.2740   10.2160 C.3    19  GLN19       0.1566
      3  C         15.1090   10.7030   10.3240 C.2    19  GLN19       0.2260
      4  O         15.0840   11.4430    9.3370 O.2    19  GLN19      -0.2867
      5  CB        13.0510    9.3180   10.1470 C.3    19  GLN19       0.0367
      6  CG        12.3420    9.8540   11.3730 C.3    19  GLN19       0.0905
      7  CD        10.8550    9.9680   11.1140 C.2    19  GLN19       0.2608
      8  OE1       10.3770   10.9540   10.5520 O.2    19  GLN19      -0.2717
      9  NE2       10.0830    8.9720   11.5360 N.am   19  GLN19      -0.0878
     10  N         10.4090   14.3070    7.3550 N.3    23  GLY23      -0.1225
     11  CA         9.0860   13.7150    7.5230 C.3    23  GLY23       0.1811
     12  C          8.9250   12.5190    6.5800 C.2    23  GLY23       0.2280
     13  O          7.9810   12.4250    5.7940 O.2    23  GLY23      -0.2866
     14  N          8.5940    9.1720    7.5530 N.3    25  CYS25      -0.1221
     15  CA         8.0360    8.0040    8.2480 C.3    25  CYS25       0.1808
     16  C          7.4080    6.9770    7.3070 C.2    25  CYS25       0.2601
     17  O          7.5440    5.7780    7.5070 O.2    25  CYS25      -0.2717
     18  CB         6.9600    8.4290    9.2440 C.3    25  CYS25       0.0970
     19  SG         5.4520    9.0840    8.4610 S.3    25  CYS25      -0.0800
     20  N          6.7460    7.4660    6.2510 N.am   26  TRP26      -0.1976
     21  CA         6.1170    6.6780    5.2010 C.3    26  TRP26       0.1640
     22  C          7.1130    5.7470    4.4950 C.2    26  TRP26       0.2290
     23  O          6.7780    4.6140    4.1550 O.2    26  TRP26      -0.2864
     24  CB         5.4800    7.6430    4.1900 C.3    26  TRP26       0.0576
     25  CG         6.4520    8.5650    3.4390 C.ar   26  TRP26       0.0006
     26  CD1        6.9130    9.7230    4.0200 C.ar   26  TRP26       0.0946
     27  CD2        6.9960    8.3510    2.1830 C.ar   26  TRP26       0.0152
     28  NE1        7.7520   10.2360    3.1500 N.ar   26  TRP26      -0.2442
     29  CE2        7.8410    9.4650    2.0470 C.ar   26  TRP26       0.0810
     30  CE3        6.9210    7.4020    1.1600 C.ar   26  TRP26       0.0012
     31  CZ2        8.6150    9.6380    0.8920 C.ar   26  TRP26       0.0191
     32  CZ3        7.6950    7.5750    0.0100 C.ar   26  TRP26       0.0001
     33  CH2        8.5400    8.6860   -0.1290 C.ar   26  TRP26       0.0015
     34  N          5.6880   10.3550   -6.5480 N.3    59  THR59      -0.1203
     35  CA         4.2590   10.2860   -6.2780 C.3    59  THR59       0.1994
     36  C          4.0100   10.5570   -4.7940 C.2    59  THR59       0.2618
     37  O          2.8740   10.5750   -4.3300 O.2    59  THR59      -0.2717
     38  CB         3.7260    8.9060   -6.7210 C.3    59  THR59       0.1784
     39  OG1        4.2250    7.9160   -5.8410 O.3    59  THR59      -0.2211
     40  CG2        4.1540    8.6020   -8.1530 C.3    59  THR59       0.0376
     41  N          5.1000   10.7200   -4.0190 N.am   60  ASP60      -0.1959
     42  CA         5.0470   11.1690   -2.6390 C.3    60  ASP60       0.1840
     43  C          5.8770   12.4580   -2.5110 C.2    60  ASP60       0.2622
     44  O          6.4140   12.9790   -3.5030 O.2    60  ASP60      -0.2715
     45  CB         5.5680   10.0590   -1.7150 C.3    60  ASP60       0.1450
     46  CG         4.5530    8.9160   -1.5970 C.2    60  ASP60       0.3671
     47  OD1        3.4550    9.1310   -1.1040 O.co2  60  ASP60      -0.2456
     48  OD2        4.8360    7.8040   -2.0260 O.co2  60  ASP60      -0.2456
     49  N          5.9540   13.0050   -1.2890 N.am   61  SER61      -0.1950
     50  CA         6.5350   14.3160   -1.1020 C.3    61  SER61       0.1924
     51  C          7.7620   14.3950   -0.2040 C.2    61  SER61       0.2314
     52  O          7.8720   15.3050    0.6160 O.2    61  SER61      -0.2863
     53  CB         5.4130   15.2390   -0.5830 C.3    61  SER61       0.2116
     54  OG         4.2820   15.2850   -1.4570 O.3    61  SER61      -0.2180
     55  N          8.2930   16.0810    3.2840 N.3    64  SER64      -0.1202
     56  CA         6.9840   16.6090    3.6460 C.3    64  SER64       0.2020
     57  C          5.9440   15.5030    3.7870 C.2    64  SER64       0.2619
     58  O          4.7580   15.7890    3.9420 O.2    64  SER64      -0.2717
     59  CB         6.4900   17.6040    2.5970 C.3    64  SER64       0.2103
     60  OG         7.2990   18.7680    2.5780 O.3    64  SER64      -0.2182
     61  N          6.3370   14.2180    3.7370 N.am   65  GLY65      -0.1942
     62  CA         5.3850   13.1470    3.9420 C.3    65  GLY65       0.2014
     63  C          5.0620   12.3750    2.6800 C.2    65  GLY65       0.2639
     64  O          5.5050   12.6750    1.5740 O.2    65  GLY65      -0.2714
     65  N          4.2550   11.3410    2.9220 N.am   66  GLY66      -0.1939
     66  CA         3.8180   10.4300    1.8880 C.3    66  GLY66       0.2014
     67  C          2.9020    9.3430    2.4510 C.2    66  GLY66       0.2639
     68  O          2.3990    9.4160    3.5660 O.2    66  GLY66      -0.2714
     69  N          2.7230    8.3030    1.6350 N.am   67  LEU67      -0.1963
     70  CA         1.8420    7.1750    1.8980 C.3    67  LEU67       0.1728
     71  C          2.5840    5.9010    1.4870 C.2    67  LEU67       0.2616
     72  O          3.1870    5.8590    0.4080 O.2    67  LEU67      -0.2715
     73  CB         0.5500    7.2770    1.0630 C.3    67  LEU67       0.0311
     74  CG        -0.3290    8.5170    1.1430 C.3    67  LEU67       0.0022
     75  CD1       -1.4800    8.3750    0.1530 C.3    67  LEU67       0.0001
     76  CD2       -0.8500    8.6980    2.5620 C.3    67  LEU67       0.0001
     77  N          2.5710    4.8700    2.3490 N.am   68  MET68      -0.1977
     78  CA         3.1850    3.5800    2.0330 C.3    68  MET68       0.1605
     79  C          2.5640    2.9420    0.7930 C.2    68  MET68       0.2287
     80  O          3.3130    2.3650    0.0190 O.2    68  MET68      -0.2864
     81  CB         3.0320    2.5690    3.1630 C.3    68  MET68       0.0413
     82  CG         3.7930    2.8750    4.4450 C.3    68  MET68       0.0598
     83  SD         3.0870    4.2000    5.4550 S.3    68  MET68      -0.1393
     84  CE         1.8440    3.2620    6.2920 C.3    68  MET68       0.0692
     85  N          1.4110    4.4240   -1.9070 N.3    70  ASN70      -0.1240
     86  CA         1.9450    5.0780   -3.0990 C.3    70  ASN70       0.1653
     87  C          3.3960    4.6550   -3.2800 C.2    70  ASN70       0.2266
     88  O          3.8230    4.4220   -4.4040 O.2    70  ASN70      -0.2867
     89  CB         1.9200    6.6020   -2.9900 C.3    70  ASN70       0.1155
     90  CG         0.5440    7.2450   -3.0660 C.2    70  ASN70       0.2627
     91  OD1       -0.4630    6.6070   -3.3460 O.2    70  ASN70      -0.2716
     92  ND2        0.4480    8.5450   -2.7960 N.am   70  ASN70      -0.0877
     93  N         -0.3610    2.8580    9.7940 N.3   138  ALA138     -0.1245
     94  CA        -0.3280    4.2640   10.1960 C.3   138  ALA138      0.1562
     95  C         -1.0110    4.4230   11.5630 C.2   138  ALA138      0.2260
     96  O         -1.9820    3.7330   11.8940 O.2   138  ALA138     -0.2867
     97  CB        -1.0690    5.1380    9.1950 C.3   138  ALA138      0.0290
     98  N         -4.3390   10.2660   12.0540 N.3   160  LEU160     -0.1231
     99  CA        -3.1460    9.5480   11.6220 C.3   160  LEU160      0.1693
    100  C         -2.0620   10.5440   11.2450 C.2   160  LEU160      0.2592
    101  O         -2.3200   11.4860   10.5070 O.2   160  LEU160     -0.2718
    102  CB        -3.4480    8.6720   10.4090 C.3   160  LEU160      0.0284
    103  CG        -4.5290    7.5900   10.5210 C.3   160  LEU160      0.0019
    104  CD1       -4.7510    6.9720    9.1460 C.3   160  LEU160      0.0001
    105  CD2       -4.1270    6.5400   11.5320 C.3   160  LEU160      0.0001
    106  N         -0.8520   10.4000   11.7760 N.am  161  ASP161     -0.1960
    107  CA         0.2340   11.3070   11.4470 C.3   161  ASP161      0.1840
    108  C          1.5860   10.6130   11.3050 C.2   161  ASP161      0.2622
    109  O          2.6040   11.2820   11.1180 O.2   161  ASP161     -0.2715
    110  CB         0.3230   12.3980   12.5360 C.3   161  ASP161      0.1450
    111  CG         0.6270   11.9280   13.9640 C.2   161  ASP161      0.3671
    112  OD1        1.0920   10.8100   14.1610 O.co2 161  ASP161     -0.2456
    113  OD2        0.4100   12.6950   14.9000 O.co2 161  ASP161     -0.2456
    114  N          1.6300    9.2750   11.4120 N.am  162  HIS162     -0.1959
    115  CA         2.9070    8.5850   11.4670 C.3   162  HIS162      0.1787
    116  C          2.8250    7.1420   11.0020 C.2   162  HIS162      0.2620
    117  O          2.0240    6.3650   11.5220 O.2   162  HIS162     -0.2715
    118  CB         3.4140    8.6360   12.9050 C.3   162  HIS162      0.0785
    119  CG         4.8870    8.3040   13.0440 C.ar  162  HIS162      0.0821
    120  ND1        5.9390    8.8650   12.4630 N.ar  162  HIS162     -0.2267
    121  CD2        5.3710    7.3400   13.8910 C.ar  162  HIS162      0.1154
    122  CE1        7.0320    8.3010   12.9190 C.ar  162  HIS162      0.1986
    123  NE2        6.6740    7.3880   13.7780 N.ar  162  HIS162     -0.2212
    124  N          3.6760    6.7870   10.0350 N.am  163  GLY163     -0.1954
    125  CA         3.7670    5.4230    9.5370 C.3   163  GLY163      0.1869
    126  C          4.8380    4.6520   10.3010 C.2   163  GLY163      0.2309
    127  O          5.9450    5.1410   10.5220 O.2   163  GLY163     -0.2863
    128  N         12.7550    6.3750   15.4430 N.3   184  TRP184     -0.1241
    129  CA        13.2740    7.4880   16.2280 C.3   184  TRP184      0.1605
    130  C         14.4750    7.0950   17.1010 C.2   184  TRP184      0.2264
    131  O         14.6230    7.6050   18.2150 O.2   184  TRP184     -0.2867
    132  CB        12.1370    8.0420   17.1150 C.3   184  TRP184      0.0550
    133  CG        10.9250    8.6870   16.4290 C.ar  184  TRP184      0.0003
    134  CD1       10.9250    9.0320   15.0960 C.ar  184  TRP184      0.0946
    135  CD2        9.7350    8.9880   17.0520 C.ar  184  TRP184      0.0152
    136  NE1        9.7430    9.5460   14.8740 N.ar  184  TRP184     -0.2442
    137  CE2        9.0000    9.5460   15.9980 C.ar  184  TRP184      0.0810
    138  CE3        9.1570    8.8820   18.3210 C.ar  184  TRP184      0.0012
    139  CZ2        7.6860    9.9950   16.1960 C.ar  184  TRP184      0.0191
    140  CZ3        7.8450    9.3290   18.5180 C.ar  184  TRP184      0.0001
    141  CH2        7.1090    9.8850   17.4650 C.ar  184  TRP184      0.0015
    142  N         -5.0190    1.9470    8.3430 N.3   208  GLU208     -0.1245
    143  CA        -4.2520    1.9600    7.1080 C.3   208  GLU208      0.1567
    144  C         -3.1610    0.8920    7.1530 C.2   208  GLU208      0.2260
    145  O         -1.9640    1.1770    7.2270 O.2   208  GLU208     -0.2867
    146  CB        -3.6080    3.3390    6.9070 C.3   208  GLU208      0.0388
    147  CG        -4.5200    4.5020    6.5290 C.3   208  GLU208      0.1160
    148  CD        -5.1790    4.3920    5.1630 C.2   208  GLU208      0.3649
    149  OE1       -4.5140    3.9760    4.2090 O.co2 208  GLU208     -0.2457
    150  OE2       -6.3640    4.7210    5.0620 O.co2 208  GLU208     -0.2457
@<TRIPOS>BOND
     1    40    38    1
     2    38    35    1
     3    38    39    1
     4    34    35    1
     5    35    36    1
     6    36    37    2
     7    36    41   am
     8    88    87    2
     9    41    42    1
    10    44    43    2
    11    91    90    2
    12    87    86    1
    13    86    89    1
    14    86    85    1
    15    90    89    1
    16    90    92   am
    17    42    43    1
    18    42    45    1
    19    43    49   am
    20    48    46   ar
    21    45    46    1
    22    46    47   ar
    23    54    53    1
    24    49    50    1
    25    50    53    1
    26    50    51    1
    27    51    52    2
    28    33    32   ar
    29    33    31   ar
    30    32    30   ar
    31    80    79    2
    32    75    74    1
    33    72    71    2
    34    79    78    1
    35    31    29   ar
    36    73    74    1
    37    73    70    1
    38    74    76    1
    39    30    27   ar
    40    71    70    1
    41    71    77   am
    42    64    63    2
    43    69    70    1
    44    69    67   am
    45    66    67    1
    46    66    65    1
    47    78    77    1
    48    78    81    1
    49    29    27   ar
    50    29    28   ar
    51    27    25   ar
    52    67    68    2
    53    60    59    1
    54    59    56    1
    55    63    65   am
    56    63    62    1
    57    28    26   ar
    58    81    82    1
    59    55    56    1
    60    25    26   ar
    61    25    24    1
    62    56    57    1
    63    61    57   am
    64    61    62    1
    65    57    58    2
    66    23    22    2
    67    24    21    1
    68   149   148   ar
    69    82    83    1
    70    22    21    1
    71   150   148   ar
    72   148   147    1
    73    21    20    1
    74    83    84    1
    75    13    12    2
    76    20    16   am
    77   147   146    1
    78    12    11    1
    79   146   143    1
    80   143   144    1
    81   143   142    1
    82   144   145    2
    83    16    17    2
    84    16    15    1
    85    10    11    1
    86    14    15    1
    87    15    18    1
    88    19    18    1
    89   104   103    1
    90    97    94    1
    91     4     3    2
    92   125   124    1
    93   125   126    1
    94    93    94    1
    95   124   116   am
    96     5     2    1
    97     5     6    1
    98    94    95    1
    99     2     3    1
   100     2     1    1
   101   126   127    2
   102   102   103    1
   103   102    99    1
   104   101   100    2
   105   103   105    1
   106     8     7    2
   107   116   115    1
   108   116   117    2
   109     7     6    1
   110     7     9   am
   111   109   108    2
   112   100    99    1
   113   100   106   am
   114   108   114   am
   115   108   107    1
   116   114   115    1
   117   107   106    1
   118   107   110    1
   119   115   118    1
   120    95    96    2
   121    99    98    1
   122   120   122   ar
   123   120   119   ar
   124   110   111    1
   125   118   119    1
   126   122   123   ar
   127   119   121   ar
   128   123   121   ar
   129   111   112   ar
   130   111   113   ar
   131   136   134   ar
   132   136   137   ar
   133   134   133   ar
   134   128   129    1
   135   137   139   ar
   136   137   135   ar
   137   139   141   ar
   138   129   130    1
   139   129   132    1
   140   133   135   ar
   141   133   132    1
   142   135   138   ar
   143   130   131    2
   144   141   140   ar
   145   138   140   ar
