@<TRIPOS>MOLECULE
tmp/1ewoA00.pdb
 161 155 0 0 0
SMALL
GASTEIGER

@<TRIPOS>ATOM
      1  N          3.8940   -8.2690   18.6620 N.3    19  GLN19      -0.1245
      2  CA         3.0860   -9.0860   17.7590 C.3    19  GLN19       0.1566
      3  C          3.0130  -10.5450   18.2060 C.2    19  GLN19       0.2260
      4  O          2.1900  -11.3170   17.7120 O.2    19  GLN19      -0.2867
      5  CB         3.5940   -8.9840   16.3150 C.3    19  GLN19       0.0367
      6  CG         4.9630   -9.5800   16.0530 C.3    19  GLN19       0.0905
      7  CD         5.4130   -9.3550   14.6230 C.2    19  GLN19       0.2608
      8  OE1        5.4300  -10.2750   13.8060 O.2    19  GLN19      -0.2717
      9  NE2        5.7590   -8.1190   14.3070 N.am   19  GLN19      -0.0878
     10  N          2.7150  -13.9800   12.6980 N.3    23  GLY23      -0.1225
     11  CA         3.4060  -13.2820   11.6260 C.3    23  GLY23       0.1811
     12  C          2.5910  -12.1230   11.0780 C.2    23  GLY23       0.2280
     13  O          2.4580  -11.9630    9.8630 O.2    23  GLY23      -0.2866
     14  N          3.3220   -8.9460   11.0790 N.3    25  CYS25      -0.1221
     15  CA         4.1670   -7.7660   10.9200 C.3    25  CYS25       0.1808
     16  C          3.5530   -6.7320    9.9860 C.2    25  CYS25       0.2601
     17  O          3.5860   -5.5340   10.2650 O.2    25  CYS25      -0.2717
     18  CB         5.5600   -8.1650   10.4250 C.3    25  CYS25       0.0970
     19  SG         5.5820   -9.0140    8.8150 S.3    25  CYS25      -0.0800
     20  N          2.9860   -7.2090    8.8850 N.am   26  TRP26      -0.1976
     21  CA         2.3500   -6.3500    7.8920 C.3    26  TRP26       0.1640
     22  C          1.2660   -5.4740    8.5150 C.2    26  TRP26       0.2290
     23  O          1.1180   -4.3040    8.1590 O.2    26  TRP26      -0.2864
     24  CB         1.7400   -7.2080    6.7820 C.3    26  TRP26       0.0576
     25  CG         0.7100   -8.1850    7.2840 C.ar   26  TRP26       0.0006
     26  CD1        0.9440   -9.4050    7.8470 C.ar   26  TRP26       0.0946
     27  CD2       -0.7140   -8.0140    7.2740 C.ar   26  TRP26       0.0152
     28  NE1       -0.2430  -10.0050    8.1870 N.ar   26  TRP26      -0.2442
     29  CE2       -1.2780   -9.1740    7.8490 C.ar   26  TRP26       0.0810
     30  CE3       -1.5690   -6.9920    6.8340 C.ar   26  TRP26       0.0012
     31  CZ2       -2.6610   -9.3440    7.9980 C.ar   26  TRP26       0.0191
     32  CZ3       -2.9450   -7.1610    6.9830 C.ar   26  TRP26       0.0001
     33  CH2       -3.4750   -8.3290    7.5600 C.ar   26  TRP26       0.0015
     34  N         -8.1070  -10.2510    2.5050 N.3    59  THR59      -0.1203
     35  CA        -7.2950  -10.1900    1.2860 C.3    59  THR59       0.1994
     36  C         -5.8440  -10.5010    1.6640 C.2    59  THR59       0.2618
     37  O         -4.9530  -10.5290    0.8150 O.2    59  THR59      -0.2717
     38  CB        -7.3680   -8.8150    0.5970 C.3    59  THR59       0.1784
     39  OG1       -6.8520   -7.8050    1.4700 O.3    59  THR59      -0.2211
     40  CG2       -8.8060   -8.4780    0.2440 C.3    59  THR59       0.0376
     41  N         -5.6210  -10.6810    2.9630 N.am   60  ASP60      -0.1959
     42  CA        -4.3170  -11.0220    3.5080 C.3    60  ASP60       0.1840
     43  C         -4.4940  -12.3110    4.3010 C.2    60  ASP60       0.2622
     44  O         -5.6110  -12.8230    4.3890 O.2    60  ASP60      -0.2715
     45  CB        -3.7730   -9.8780    4.3650 C.3    60  ASP60       0.1450
     46  CG        -3.2730   -8.7170    3.5200 C.2    60  ASP60       0.3671
     47  OD1       -2.5490   -8.9650    2.5380 O.co2  60  ASP60      -0.2456
     48  OD2       -3.6170   -7.5600    3.8150 O.co2  60  ASP60      -0.2456
     49  N         -3.4220  -12.8410    4.8790 N.am   61  SER61      -0.1950
     50  CA        -3.5310  -14.1020    5.6020 C.3    61  SER61       0.1924
     51  C         -3.2110  -14.0740    7.0940 C.2    61  SER61       0.2314
     52  O         -2.6490  -15.0270    7.6360 O.2    61  SER61      -0.2863
     53  CB        -2.6910  -15.1630    4.8900 C.3    61  SER61       0.2116
     54  OG        -2.9950  -15.1830    3.5020 O.3    61  SER61      -0.2180
     55  N         -1.8860  -14.2880   10.4830 N.3    63  CYS63      -0.1221
     56  CA        -0.6150  -14.7310   11.0470 C.3    63  CYS63       0.1808
     57  C          0.3310  -15.3870   10.0480 C.2    63  CYS63       0.2602
     58  O          1.4990  -15.6100   10.3600 O.2    63  CYS63      -0.2717
     59  CB        -0.8480  -15.6580   12.2440 C.3    63  CYS63       0.0970
     60  SG        -1.6180  -14.8290   13.6730 S.3    63  CYS63      -0.0800
     61  N         -0.1760  -15.7100    8.8630 N.am   64  SER64      -0.1938
     62  CA         0.6380  -16.3270    7.8230 C.3    64  SER64       0.2055
     63  C          1.1930  -15.2790    6.8550 C.2    64  SER64       0.2644
     64  O          1.7010  -15.6190    5.7860 O.2    64  SER64      -0.2714
     65  CB        -0.1770  -17.3730    7.0560 C.3    64  SER64       0.2130
     66  OG        -0.6240  -18.4010    7.9240 O.3    64  SER64      -0.2179
     67  N          1.0740  -14.0060    7.2220 N.am   65  GLY65      -0.1939
     68  CA         1.5850  -12.9450    6.3760 C.3    65  GLY65       0.2014
     69  C          0.5430  -12.1380    5.6260 C.2    65  GLY65       0.2639
     70  O         -0.6420  -12.4780    5.6100 O.2    65  GLY65      -0.2714
     71  N          1.0030  -11.0580    5.0030 N.am   66  GLY66      -0.1939
     72  CA         0.1350  -10.1830    4.2420 C.3    66  GLY66       0.2014
     73  C          0.9270   -9.0030    3.7140 C.2    66  GLY66       0.2639
     74  O          2.1080   -8.8580    4.0250 O.2    66  GLY66      -0.2714
     75  N          0.2720   -8.1440    2.9410 N.am   67  LEU67      -0.1963
     76  CA         0.9170   -6.9770    2.3550 C.3    67  LEU67       0.1728
     77  C          0.2880   -5.6880    2.8680 C.2    67  LEU67       0.2616
     78  O         -0.9370   -5.5530    2.8680 O.2    67  LEU67      -0.2715
     79  CB         0.7830   -7.0260    0.8320 C.3    67  LEU67       0.0311
     80  CG         1.3220   -8.2730    0.1250 C.3    67  LEU67       0.0022
     81  CD1        0.9280   -8.2580   -1.3420 C.3    67  LEU67       0.0001
     82  CD2        2.8360   -8.3380    0.2760 C.3    67  LEU67       0.0001
     83  N          1.1220   -4.7310    3.2700 N.am   68  MET68      -0.1977
     84  CA         0.6250   -3.4490    3.7640 C.3    68  MET68       0.1605
     85  C         -0.2980   -2.7880    2.7400 C.2    68  MET68       0.2287
     86  O         -1.3210   -2.2060    3.1000 O.2    68  MET68      -0.2864
     87  CB         1.7770   -2.4940    4.0950 C.3    68  MET68       0.0413
     88  CG         2.5650   -2.8510    5.3470 C.3    68  MET68       0.0598
     89  SD         3.8110   -4.1270    5.0990 S.3    68  MET68      -0.1393
     90  CE         5.1030   -3.1580    4.3560 C.3    68  MET68       0.0692
     91  N         -2.2580   -4.2230    0.5260 N.3    70  ASN70      -0.1240
     92  CA        -3.5540   -4.9000    0.4740 C.3    70  ASN70       0.1653
     93  C         -4.3720   -4.4110    1.6650 C.2    70  ASN70       0.2266
     94  O         -5.5640   -4.1200    1.5440 O.2    70  ASN70      -0.2867
     95  CB        -3.3880   -6.4200    0.5670 C.3    70  ASN70       0.1155
     96  CG        -2.9610   -7.0520   -0.7470 C.2    70  ASN70       0.2627
     97  OD1       -2.6590   -6.3640   -1.7220 O.2    70  ASN70      -0.2716
     98  ND2       -2.9380   -8.3740   -0.7770 N.am   70  ASN70      -0.0877
     99  N          8.9410   -2.5000    3.6230 N.3   138  ALA138     -0.1245
    100  CA         9.2300   -3.9160    3.7880 C.3   138  ALA138      0.1562
    101  C         10.7490   -4.0430    3.7910 C.2   138  ALA138      0.2260
    102  O         11.4370   -3.2960    3.0850 O.2   138  ALA138     -0.2867
    103  CB         8.6460   -4.7080    2.6340 C.3   138  ALA138      0.0290
    104  N         14.5850   -9.0270    7.1980 N.3   141  ALA141     -0.1245
    105  CA        14.9410   -9.0320    8.6100 C.3   141  ALA141      0.1562
    106  C         15.6700  -10.2930    9.0670 C.2   141  ALA141      0.2260
    107  O         15.7510  -10.5640   10.2670 O.2   141  ALA141     -0.2867
    108  CB        13.6950   -8.8030    9.4600 C.3   141  ALA141      0.0290
    109  N         12.6220   -9.8430    0.7770 N.3   160  LEU160     -0.1231
    110  CA        11.7320   -9.1050    1.6700 C.3   160  LEU160      0.1693
    111  C         10.8770  -10.1150    2.4310 C.2   160  LEU160      0.2592
    112  O         10.3020  -11.0230    1.8290 O.2   160  LEU160     -0.2718
    113  CB        10.8250   -8.1690    0.8680 C.3   160  LEU160      0.0284
    114  CG        11.4820   -7.0190    0.1060 C.3   160  LEU160      0.0019
    115  CD1       10.4670   -6.3550   -0.8010 C.3   160  LEU160      0.0001
    116  CD2       12.0630   -6.0160    1.0820 C.3   160  LEU160      0.0001
    117  N         10.8030   -9.9710    3.7480 N.am  161  ASP161     -0.1960
    118  CA        10.0160  -10.8970    4.5520 C.3   161  ASP161      0.1840
    119  C          9.4470  -10.2680    5.8180 C.2   161  ASP161      0.2622
    120  O          8.8350  -10.9540    6.6330 O.2   161  ASP161     -0.2715
    121  CB        10.8600  -12.1360    4.9140 C.3   161  ASP161      0.1450
    122  CG        12.1350  -11.7960    5.7120 C.2   161  ASP161      0.3671
    123  OD1       12.2860  -10.6570    6.2070 O.co2 161  ASP161     -0.2456
    124  OD2       12.9990  -12.6910    5.8500 O.co2 161  ASP161     -0.2456
    125  N          9.5920   -8.9550    5.9530 N.am  162  HIS162     -0.1959
    126  CA         9.1290   -8.2770    7.1520 C.3   162  HIS162      0.1787
    127  C          8.6050   -6.8720    6.8510 C.2   162  HIS162      0.2620
    128  O          9.0750   -6.2080    5.9280 O.2   162  HIS162     -0.2715
    129  CB        10.2960   -8.2240    8.1470 C.3   162  HIS162      0.0785
    130  CG         9.9340   -7.7090    9.5060 C.ar  162  HIS162      0.0821
    131  ND1        8.8780   -8.2040   10.2400 N.ar  162  HIS162     -0.2267
    132  CD2       10.5210   -6.7680   10.2830 C.ar  162  HIS162      0.1154
    133  CE1        8.8280   -7.5890   11.4070 C.ar  162  HIS162      0.1986
    134  NE2        9.8150   -6.7140   11.4580 N.ar  162  HIS162     -0.2212
    135  N          7.6030   -6.4460    7.6150 N.am  163  GLY163     -0.1954
    136  CA         7.0360   -5.1210    7.4390 C.3   163  GLY163      0.1869
    137  C          7.3460   -4.3040    8.6750 C.2   163  GLY163      0.2309
    138  O          7.2090   -4.8040    9.7920 O.2   163  GLY163     -0.2863
    139  N          8.5750   -6.0660   17.9750 N.3   184  TRP184     -0.1241
    140  CA         9.0400   -7.2230   18.7320 C.3   184  TRP184      0.1605
    141  C          9.3340   -6.8700   20.1900 C.2   184  TRP184      0.2264
    142  O         10.2590   -7.4160   20.7930 O.2   184  TRP184     -0.2867
    143  CB        10.2930   -7.8120   18.0710 C.3   184  TRP184      0.0550
    144  CG        10.0720   -8.3400   16.6780 C.ar  184  TRP184      0.0003
    145  CD1        8.8710   -8.5740   16.0620 C.ar  184  TRP184      0.0946
    146  CD2       11.0830   -8.7210   15.7350 C.ar  184  TRP184      0.0152
    147  NE1        9.0750   -9.0770   14.8020 N.ar  184  TRP184     -0.2442
    148  CE2       10.4220   -9.1770   14.5730 C.ar  184  TRP184      0.0810
    149  CE3       12.4850   -8.7230   15.7610 C.ar  184  TRP184      0.0012
    150  CZ2       11.1150   -9.6310   13.4450 C.ar  184  TRP184      0.0191
    151  CZ3       13.1740   -9.1750   14.6380 C.ar  184  TRP184      0.0001
    152  CH2       12.4860   -9.6230   13.4960 C.ar  184  TRP184      0.0015
    153  N          9.7320   -1.6610   -1.1050 N.3   208  GLU208     -0.1245
    154  CA         8.2790   -1.6020   -0.9440 C.3   208  GLU208      0.1567
    155  C          7.8510   -0.5610    0.0810 C.2   208  GLU208      0.2260
    156  O          7.4200   -0.9090    1.1810 O.2   208  GLU208     -0.2867
    157  CB         7.7470   -2.9690   -0.5100 C.3   208  GLU208      0.0388
    158  CG         7.6270   -3.9980   -1.6180 C.3   208  GLU208      0.1160
    159  CD         6.4210   -3.7570   -2.5040 C.2   208  GLU208      0.3649
    160  OE1        5.2970   -3.6440   -1.9650 O.co2 208  GLU208     -0.2457
    161  OE2        6.5980   -3.6860   -3.7380 O.co2 208  GLU208     -0.2457
@<TRIPOS>BOND
     1   161   159   ar
     2   159   160   ar
     3   159   158    1
     4    97    96    2
     5   158   157    1
     6    81    80    1
     7   153   154    1
     8   154   157    1
     9   154   155    1
    10   115   114    1
    11    98    96   am
    12    96    95    1
    13   155   156    2
    14   114   113    1
    15   114   116    1
    16    80    82    1
    17    80    79    1
    18    40    38    1
    19    92    91    1
    20    92    95    1
    21    92    93    1
    22    38    35    1
    23    38    39    1
    24   109   110    1
    25    37    36    2
    26    79    76    1
    27   113   110    1
    28    35    36    1
    29    35    34    1
    30    94    93    2
    31    36    41   am
    32   110   111    1
    33   112   111    2
    34    76    77    1
    35    76    75    1
    36   111   117   am
    37    47    46   ar
    38   103   100    1
    39    85    86    2
    40    85    84    1
    41    77    78    2
    42    77    83   am
    43    75    73   am
    44    41    42    1
    45   102   101    2
    46    83    84    1
    47    54    53    1
    48    42    43    1
    49    42    45    1
    50    46    48   ar
    51    46    45    1
    52    99   100    1
    53    73    74    2
    54    73    72    1
    55   117   118    1
    56    84    87    1
    57   100   101    1
    58    87    88    1
    59    72    71    1
    60    43    44    2
    61    43    49   am
    62    90    89    1
    63   118   121    1
    64   118   119    1
    65    49    50    1
    66    53    50    1
    67   121   122    1
    68    71    69   am
    69    89    88    1
    70    50    51    1
    71    70    69    2
    72    69    68    1
    73   122   124   ar
    74   122   123   ar
    75    64    63    2
    76   119   125   am
    77   119   120    2
    78   128   127    2
    79   125   126    1
    80    68    67    1
    81    24    25    1
    82    24    21    1
    83    30    32   ar
    84    30    27   ar
    85   127   126    1
    86   127   135   am
    87    63    67   am
    88    63    62    1
    89    32    33   ar
    90    65    62    1
    91    65    66    1
    92    51    52    2
    93   126   129    1
    94   104   105    1
    95    27    25   ar
    96    27    29   ar
    97    25    26   ar
    98   136   135    1
    99   136   137    1
   100    33    31   ar
   101    62    61    1
   102    26    28   ar
   103    29    31   ar
   104    29    28   ar
   105    21    22    1
   106    21    20    1
   107   129   130    1
   108    23    22    2
   109   105   106    1
   110   105   108    1
   111   137   138    2
   112    19    18    1
   113    61    57   am
   114    20    16   am
   115   106   107    2
   116   130   131   ar
   117   130   132   ar
   118    13    12    2
   119    16    17    2
   120    16    15    1
   121    57    58    2
   122    57    56    1
   123   131   133   ar
   124   132   134   ar
   125    18    15    1
   126    55    56    1
   127    15    14    1
   128    56    59    1
   129    12    11    1
   130   133   134   ar
   131    11    10    1
   132    59    60    1
   133   150   152   ar
   134   150   148   ar
   135   152   151   ar
   136     8     7    2
   137     9     7   am
   138   148   147   ar
   139   148   146   ar
   140     7     6    1
   141   151   149   ar
   142   147   145   ar
   143   146   149   ar
   144   146   144   ar
   145     6     5    1
   146   145   144   ar
   147     5     2    1
   148   144   143    1
   149     4     3    2
   150     2     3    1
   151     2     1    1
   152   139   140    1
   153   143   140    1
   154   140   141    1
   155   141   142    2
