@<TRIPOS>MOLECULE
tmp/1ewpA00.pdb
 127 122 0 0 0
SMALL
GASTEIGER

@<TRIPOS>ATOM
      1  N         15.3670    8.4950   11.4260 N.3    19  GLN19      -0.1245
      2  CA        14.9340    9.3580   10.3390 C.3    19  GLN19       0.1566
      3  C         15.5240   10.7640   10.4650 C.2    19  GLN19       0.2260
      4  O         15.4890   11.5590    9.5160 O.2    19  GLN19      -0.2867
      5  CB        13.4020    9.4200   10.3170 C.3    19  GLN19       0.0367
      6  CG        12.7290   10.1860   11.4330 C.3    19  GLN19       0.0905
      7  CD        11.2290   10.1430   11.2840 C.2    19  GLN19       0.2608
      8  OE1       10.5640   11.1000   10.8950 O.2    19  GLN19      -0.2717
      9  NE2       10.5930    9.0120   11.5300 N.am   19  GLN19      -0.0878
     10  N         11.0130   14.5530    7.6090 N.3    23  GLY23      -0.1225
     11  CA         9.6900   13.9560    7.8110 C.3    23  GLY23       0.1811
     12  C          9.4880   12.7360    6.8990 C.2    23  GLY23       0.2280
     13  O          8.5330   12.6680    6.1010 O.2    23  GLY23      -0.2866
     14  N          9.1320    9.3960    7.9360 N.3    25  CYS25      -0.1221
     15  CA         8.5990    8.1760    8.5640 C.3    25  CYS25       0.1808
     16  C          7.8440    7.2090    7.6300 C.2    25  CYS25       0.2601
     17  O          7.9220    5.9860    7.7780 O.2    25  CYS25      -0.2717
     18  CB         7.6850    8.5620    9.7250 C.3    25  CYS25       0.0970
     19  SG         6.1120    9.2950    9.2540 S.3    25  CYS25      -0.0800
     20  N          7.1570    7.7370    6.6170 N.am   26  TRP26      -0.1976
     21  CA         6.4370    6.9740    5.6040 C.3    26  TRP26       0.1640
     22  C          7.3710    6.0150    4.8590 C.2    26  TRP26       0.2290
     23  O          7.0470    4.8550    4.5790 O.2    26  TRP26      -0.2864
     24  CB         5.7870    7.9630    4.6110 C.3    26  TRP26       0.0576
     25  CG         6.7470    8.8980    3.8630 C.ar   26  TRP26       0.0006
     26  CD1        7.1980   10.0730    4.4270 C.ar   26  TRP26       0.0946
     27  CD2        7.2710    8.6920    2.6040 C.ar   26  TRP26       0.0152
     28  NE1        8.0100   10.6150    3.5270 N.ar   26  TRP26      -0.2442
     29  CE2        8.0840    9.8230    2.4290 C.ar   26  TRP26       0.0810
     30  CE3        7.1690    7.7080    1.6160 C.ar   26  TRP26       0.0012
     31  CZ2        8.8120    9.9770    1.2430 C.ar   26  TRP26       0.0191
     32  CZ3        7.9020    7.8730    0.4360 C.ar   26  TRP26       0.0001
     33  CH2        8.7170    8.9970    0.2500 C.ar   26  TRP26       0.0015
     34  N          5.2290   11.0770   -3.6630 N.3    60  ASP60      -0.1225
     35  CA         5.2340   11.4950   -2.2780 C.3    60  ASP60       0.1805
     36  C          6.0560   12.7630   -2.1210 C.2    60  ASP60       0.2598
     37  O          6.5870   13.2840   -3.1080 O.2    60  ASP60      -0.2718
     38  CB         5.7790   10.3680   -1.4250 C.3    60  ASP60       0.1424
     39  CG         4.7070    9.2890   -1.2940 C.2    60  ASP60       0.3668
     40  OD1        3.6690    9.5590   -0.6930 O.co2  60  ASP60      -0.2456
     41  OD2        4.8600    8.1900   -1.8140 O.co2  60  ASP60      -0.2456
     42  N          6.1890   13.3370   -0.9200 N.am   61  SER61      -0.1952
     43  CA         6.8110   14.6330   -0.7640 C.3    61  SER61       0.1924
     44  C          8.0890   14.6940    0.0670 C.2    61  SER61       0.2314
     45  O          8.3150   15.6820    0.7850 O.2    61  SER61      -0.2863
     46  CB         5.7520   15.5990   -0.1910 C.3    61  SER61       0.2116
     47  OG         4.6070   15.7180   -1.0390 O.3    61  SER61      -0.2180
     48  N         10.9430   15.0020    2.5700 N.3    63  CYS63      -0.1221
     49  CA        10.9330   15.3460    3.9770 C.3    63  CYS63       0.1808
     50  C          9.6750   16.0680    4.4230 C.2    63  CYS63       0.2602
     51  O          9.5730   16.3830    5.5990 O.2    63  CYS63      -0.2717
     52  CB        12.1790   16.1870    4.3210 C.3    63  CYS63       0.0970
     53  SG        13.7120   15.2170    4.1990 S.3    63  CYS63      -0.0800
     54  N          8.7070   16.3250    3.5520 N.am   64  SER64      -0.1938
     55  CA         7.4400   16.9230    3.9550 C.3    64  SER64       0.2055
     56  C          6.3260   15.8780    4.0380 C.2    64  SER64       0.2644
     57  O          5.1450   16.2220    4.1350 O.2    64  SER64      -0.2714
     58  CB         7.0580   18.0210    2.9620 C.3    64  SER64       0.2130
     59  OG         8.0470   19.0460    2.9480 O.3    64  SER64      -0.2179
     60  N          6.6290   14.5790    4.0060 N.am   65  GLY65      -0.1939
     61  CA         5.6140   13.5690    4.2360 C.3    65  GLY65       0.2014
     62  C          5.2990   12.7440    3.0230 C.2    65  GLY65       0.2639
     63  O          5.6990   13.0630    1.8990 O.2    65  GLY65      -0.2714
     64  N          4.5690   11.6580    3.2550 N.am   66  GLY66      -0.1939
     65  CA         4.1910   10.7480    2.1970 C.3    66  GLY66       0.2014
     66  C          3.2720    9.6810    2.7640 C.2    66  GLY66       0.2639
     67  O          2.8790    9.7510    3.9330 O.2    66  GLY66      -0.2714
     68  N          2.9730    8.6840    1.9450 N.am   67  LEU67      -0.1963
     69  CA         2.0630    7.5990    2.2330 C.3    67  LEU67       0.1728
     70  C          2.7230    6.2900    1.8030 C.2    67  LEU67       0.2616
     71  O          3.2040    6.1710    0.6690 O.2    67  LEU67      -0.2715
     72  CB         0.7460    7.7890    1.4540 C.3    67  LEU67       0.0311
     73  CG        -0.1350    8.9960    1.7700 C.3    67  LEU67       0.0022
     74  CD1       -1.2960    9.0820    0.7800 C.3    67  LEU67       0.0001
     75  CD2       -0.6260    8.8740    3.2060 C.3    67  LEU67       0.0001
     76  N          2.6690    5.2520    2.6570 N.am   68  MET68      -0.1977
     77  CA         3.3010    3.9670    2.3690 C.3    68  MET68       0.1605
     78  C          2.6920    3.3420    1.1330 C.2    68  MET68       0.2287
     79  O          3.4550    2.8350    0.3170 O.2    68  MET68      -0.2864
     80  CB         3.1560    2.9790    3.5270 C.3    68  MET68       0.0413
     81  CG         3.9390    3.3580    4.7870 C.3    68  MET68       0.0598
     82  SD         3.3040    4.7310    5.7880 S.3    68  MET68      -0.1393
     83  CE         2.0990    3.8270    6.7010 C.3    68  MET68       0.0692
     84  N         -0.2240    3.1310    9.9460 N.3   138  ALA138     -0.1245
     85  CA        -0.2130    4.5610   10.2200 C.3   138  ALA138      0.1562
     86  C         -0.8540    4.7220   11.6020 C.2   138  ALA138      0.2260
     87  O         -1.7970    3.9970   11.9430 O.2   138  ALA138     -0.2867
     88  CB        -1.0550    5.2840    9.1940 C.3   138  ALA138      0.0290
     89  N         -4.1780   10.5660   12.0900 N.3   160  LEU160     -0.1231
     90  CA        -3.0190    9.7720   11.7100 C.3   160  LEU160      0.1693
     91  C         -1.9100   10.7340   11.3130 C.2   160  LEU160      0.2592
     92  O         -2.1810   11.6310   10.5030 O.2   160  LEU160     -0.2718
     93  CB        -3.3390    8.8730   10.5220 C.3   160  LEU160      0.0284
     94  CG        -4.4230    7.8160   10.6720 C.3   160  LEU160      0.0019
     95  CD1       -4.6830    7.1910    9.3120 C.3   160  LEU160      0.0001
     96  CD2       -4.0030    6.7660   11.6850 C.3   160  LEU160      0.0001
     97  N         -0.7000   10.6080   11.8450 N.am  161  ASP161     -0.1960
     98  CA         0.3810   11.4840   11.4140 C.3   161  ASP161      0.1840
     99  C          1.7090   10.7550   11.2940 C.2   161  ASP161      0.2622
    100  O          2.7470   11.3400   10.9060 O.2   161  ASP161     -0.2715
    101  CB         0.5360   12.6580   12.4110 C.3   161  ASP161      0.1450
    102  CG         0.9800   12.2980   13.8290 C.2   161  ASP161      0.3671
    103  OD1        1.1860   11.1260   14.1340 O.co2 161  ASP161     -0.2456
    104  OD2        1.1680   13.1940   14.6490 O.co2 161  ASP161     -0.2456
    105  N          1.7530    9.4550   11.5970 N.am  162  HIS162     -0.1959
    106  CA         3.0310    8.7470   11.6470 C.3   162  HIS162      0.1787
    107  C          2.9120    7.3450   11.0590 C.2   162  HIS162      0.2620
    108  O          1.8610    6.7130   11.1750 O.2   162  HIS162     -0.2715
    109  CB         3.4800    8.6860   13.1110 C.3   162  HIS162      0.0785
    110  CG         4.9230    8.3150   13.3360 C.ar  162  HIS162      0.0821
    111  ND1        6.0330    8.8390   12.8330 N.ar  162  HIS162     -0.2267
    112  CD2        5.2860    7.2880   14.1660 C.ar  162  HIS162      0.1154
    113  CE1        7.0440    8.1470   13.3230 C.ar  162  HIS162      0.1986
    114  NE2        6.5850    7.2290   14.1200 N.ar  162  HIS162     -0.2212
    115  N          3.9780    6.8700   10.4170 N.am  163  GLY163     -0.1954
    116  CA         3.9760    5.5580    9.7970 C.3   163  GLY163      0.1869
    117  C          5.0350    4.7170   10.4690 C.2   163  GLY163      0.2309
    118  O          6.1530    5.2070   10.6710 O.2   163  GLY163     -0.2863
    119  N         -4.9930    2.1350    8.5910 N.3   208  GLU208     -0.1245
    120  CA        -4.2890    2.2390    7.3190 C.3   208  GLU208      0.1567
    121  C         -3.1800    1.2040    7.3260 C.2   208  GLU208      0.2260
    122  O         -2.0080    1.5090    7.5620 O.2   208  GLU208     -0.2867
    123  CB        -3.8000    3.6930    7.2510 C.3   208  GLU208      0.0388
    124  CG        -3.1370    4.2460    6.0010 C.3   208  GLU208      0.1160
    125  CD        -4.0100    4.4700    4.7690 C.2   208  GLU208      0.3649
    126  OE1       -5.2400    4.4460    4.9200 O.co2 208  GLU208     -0.2457
    127  OE2       -3.4900    4.6580    3.6650 O.co2 208  GLU208     -0.2457
@<TRIPOS>BOND
     1    34    35    1
     2    37    36    2
     3    35    36    1
     4    35    38    1
     5    36    42   am
     6    41    39   ar
     7    38    39    1
     8    39    40   ar
     9    47    46    1
    10    42    43    1
    11    43    46    1
    12    43    44    1
    13    44    45    2
    14    33    32   ar
    15    33    31   ar
    16    79    78    2
    17    32    30   ar
    18    71    70    2
    19    74    73    1
    20    78    77    1
    21    31    29   ar
    22    72    73    1
    23    72    69    1
    24    30    27   ar
    25    73    75    1
    26    70    69    1
    27    70    76   am
    28    63    62    2
    29    68    69    1
    30    68    66   am
    31    65    66    1
    32    65    64    1
    33    77    76    1
    34    77    80    1
    35    29    27   ar
    36    29    28   ar
    37    48    49    1
    38    27    25   ar
    39    66    67    2
    40    59    58    1
    41    58    55    1
    42    62    64   am
    43    62    61    1
    44    28    26   ar
    45    80    81    1
    46    54    55    1
    47    54    50   am
    48   127   125   ar
    49    25    26   ar
    50    25    24    1
    51    55    56    1
    52    49    52    1
    53    49    50    1
    54    60    56   am
    55    60    61    1
    56    56    57    2
    57    53    52    1
    58    50    51    2
    59    23    22    2
    60    24    21    1
    61   125   126   ar
    62   125   124    1
    63    81    82    1
    64    22    21    1
    65    21    20    1
    66    82    83    1
    67   124   123    1
    68    13    12    2
    69    20    16   am
    70    12    11    1
    71   123   120    1
    72   120   121    1
    73   120   119    1
    74   121   122    2
    75    10    11    1
    76    16    17    2
    77    16    15    1
    78    14    15    1
    79    15    18    1
    80    88    85    1
    81    19    18    1
    82    95    94    1
    83     4     3    2
    84   116   115    1
    85   116   117    1
    86    84    85    1
    87    85    86    1
    88     5     2    1
    89     5     6    1
    90     2     3    1
    91     2     1    1
    92   115   107   am
    93   117   118    2
    94    92    91    2
    95    93    94    1
    96    93    90    1
    97    94    96    1
    98     8     7    2
    99   100    99    2
   100   107   108    2
   101   107   106    1
   102     7     6    1
   103     7     9   am
   104    99    98    1
   105    99   105   am
   106    91    90    1
   107    91    97   am
   108    98    97    1
   109    98   101    1
   110   105   106    1
   111    86    87    2
   112   106   109    1
   113    90    89    1
   114   101   102    1
   115   111   113   ar
   116   111   110   ar
   117   109   110    1
   118   113   114   ar
   119   110   112   ar
   120   102   103   ar
   121   102   104   ar
   122   114   112   ar
