@<TRIPOS>MOLECULE
tmp/1ex4B01.pdb
 135 129 0 0 0
SMALL
GASTEIGER

@<TRIPOS>ATOM
      1  N          1.1170   24.7980  -11.7680 N.3   150  GLN150     -0.1231
      2  CA         1.7820   25.5840  -10.7510 C.3   150  GLN150      0.1698
      3  C          2.3200   24.6760   -9.6600 C.2   150  GLN150      0.2592
      4  O          3.3870   24.9120   -9.1080 O.2   150  GLN150     -0.2718
      5  CB         0.7850   26.5720  -10.1610 C.3   150  GLN150      0.0381
      6  CG         1.3090   27.9540   -9.8830 C.3   150  GLN150      0.0905
      7  CD         0.3590   29.0080  -10.4230 C.2   150  GLN150      0.2608
      8  OE1        0.4710   29.4220  -11.5770 O.2   150  GLN150     -0.2717
      9  NE2       -0.6050   29.4240   -9.6020 N.am  150  GLN150     -0.0878
     10  N          1.5730   23.6300   -9.3530 N.am  151  ILE151     -0.1980
     11  CA         1.9650   22.7050   -8.2990 C.3   151  ILE151      0.1595
     12  C          2.9670   21.6670   -8.7550 C.2   151  ILE151      0.2287
     13  O          3.8950   21.3540   -8.0310 O.2   151  ILE151     -0.2864
     14  CB         0.7250   22.0000   -7.6800 C.3   151  ILE151      0.0276
     15  CG1       -0.1700   23.0570   -7.0100 C.3   151  ILE151      0.0022
     16  CG2        1.1730   20.9550   -6.6710 C.3   151  ILE151      0.0022
     17  CD1       -1.4240   22.5400   -6.4140 C.3   151  ILE151      0.0001
     18  N          5.0450   22.0820  -11.0980 N.3   153  LYS153     -0.1231
     19  CA         6.3060   22.7580  -11.3630 C.3   153  LYS153      0.1693
     20  C          7.1150   22.8370  -10.0810 C.2   153  LYS153      0.2591
     21  O          8.3210   22.6230  -10.0890 O.2   153  LYS153     -0.2718
     22  CB         6.0920   24.1750  -11.9050 C.3   153  LYS153      0.0285
     23  CG         7.4150   24.8890  -12.1650 C.3   153  LYS153      0.0035
     24  CD         7.2630   26.3830  -12.3560 C.3   153  LYS153      0.0206
     25  CE         8.6070   27.0990  -12.1490 C.3   153  LYS153      0.1093
     26  NZ         9.1460   26.9950  -10.7480 N.3   153  LYS153     -0.1314
     27  N          6.4380   23.1360   -8.9810 N.am  154  ILE154     -0.1980
     28  CA         7.0840   23.2520   -7.6790 C.3   154  ILE154      0.1595
     29  C          7.5000   21.8650   -7.1450 C.2   154  ILE154      0.2287
     30  O          8.4510   21.7450   -6.3710 O.2   154  ILE154     -0.2864
     31  CB         6.1280   23.9940   -6.6940 C.3   154  ILE154      0.0276
     32  CG1        6.9220   24.9430   -5.7960 C.3   154  ILE154      0.0022
     33  CG2        5.3030   23.0000   -5.8990 C.3   154  ILE154      0.0022
     34  CD1        7.5840   24.3000   -4.6140 C.3   154  ILE154      0.0001
     35  N         11.1370   20.3140   -7.7170 N.3   157  PHE157     -0.1241
     36  CA        12.2660   20.4710   -6.8170 C.3   157  PHE157      0.1605
     37  C         12.0960   19.3810   -5.7880 C.2   157  PHE157      0.2264
     38  O         11.0290   19.2420   -5.1870 O.2   157  PHE157     -0.2867
     39  CB        12.2520   21.8380   -6.1400 C.3   157  PHE157      0.0534
     40  CG        12.4650   22.9790   -7.0840 C.ar  157  PHE157     -0.0203
     41  CD1       13.6360   23.7210   -7.0420 C.ar  157  PHE157     -0.0042
     42  CD2       11.4970   23.3060   -8.0320 C.ar  157  PHE157     -0.0042
     43  CE1       13.8430   24.7640   -7.9240 C.ar  157  PHE157     -0.0003
     44  CE2       11.6960   24.3490   -8.9190 C.ar  157  PHE157     -0.0003
     45  CZ        12.8700   25.0770   -8.8650 C.ar  157  PHE157     -0.0000
     46  N          8.7780   19.1310   -3.0290 N.3   175  LEU175     -0.1231
     47  CA         8.5890   20.4380   -2.3860 C.3   175  LEU175      0.1693
     48  C          7.1720   20.9340   -2.6080 C.2   175  LEU175      0.2592
     49  O          6.6510   20.8390   -3.7110 O.2   175  LEU175     -0.2718
     50  CB         9.5540   21.4730   -2.9650 C.3   175  LEU175      0.0284
     51  CG         9.5520   22.8740   -2.3510 C.3   175  LEU175      0.0019
     52  CD1       10.0290   22.8430   -0.9150 C.3   175  LEU175      0.0001
     53  CD2       10.4540   23.7570   -3.1550 C.3   175  LEU175      0.0001
     54  N          6.5510   21.4650   -1.5620 N.am  176  LEU176     -0.1966
     55  CA         5.2000   21.9900   -1.7020 C.3   176  LEU176      0.1728
     56  C          5.1810   23.5100   -1.5490 C.2   176  LEU176      0.2616
     57  O          4.6380   24.2190   -2.3950 O.2   176  LEU176     -0.2715
     58  CB         4.2620   21.3360   -0.6820 C.3   176  LEU176      0.0311
     59  CG         3.1880   20.4330   -1.2990 C.3   176  LEU176      0.0022
     60  CD1        3.8130   19.5360   -2.3460 C.3   176  LEU176      0.0001
     61  CD2        2.5090   19.6110   -0.2290 C.3   176  LEU176      0.0001
     62  N          5.8050   24.0020   -0.4840 N.am  177  TRP177     -0.1960
     63  CA         5.8420   25.4330   -0.1930 C.3   177  TRP177      0.1771
     64  C          7.1570   25.7350    0.5040 C.2   177  TRP177      0.2619
     65  O          7.7750   24.8580    1.0790 O.2   177  TRP177     -0.2715
     66  CB         4.6590   25.7990    0.7150 C.3   177  TRP177      0.0590
     67  CG         4.5070   27.2430    1.0640 C.ar  177  TRP177      0.0006
     68  CD1        3.9510   28.2360    0.2920 C.ar  177  TRP177      0.0946
     69  CD2        4.8400   27.8470    2.3090 C.ar  177  TRP177      0.0152
     70  NE1        3.9130   29.4180    0.9980 N.ar  177  TRP177     -0.2442
     71  CE2        4.4560   29.2020    2.2370 C.ar  177  TRP177      0.0810
     72  CE3        5.4230   27.3740    3.4780 C.ar  177  TRP177      0.0012
     73  CZ2        4.6370   30.0760    3.2910 C.ar  177  TRP177      0.0191
     74  CZ3        5.6060   28.2530    4.5370 C.ar  177  TRP177      0.0001
     75  CH2        5.2190   29.5790    4.4380 C.ar  177  TRP177      0.0015
     76  N          7.5790   26.9830    0.4580 N.am  178  LYS178     -0.1977
     77  CA         8.8370   27.3730    1.0650 C.3   178  LYS178      0.1596
     78  C          8.6150   28.7900    1.6000 C.2   178  LYS178      0.2287
     79  O          8.2480   29.6940    0.8510 O.2   178  LYS178     -0.2864
     80  CB         9.9130   27.3310   -0.0270 C.3   178  LYS178      0.0298
     81  CG        11.3150   27.5830    0.3890 C.3   178  LYS178      0.0038
     82  CD        12.2250   27.5790   -0.8360 C.3   178  LYS178      0.0206
     83  CE        13.6770   27.8620   -0.4070 C.3   178  LYS178      0.1093
     84  NZ        14.6930   27.7020   -1.4990 N.3   178  LYS178     -0.1314
     85  N          8.7970   31.3620    5.6600 N.3   180  GLU180     -0.1245
     86  CA         8.8670   31.4710    7.1110 C.3   180  GLU180      0.1567
     87  C          9.8730   30.5810    7.7740 C.2   180  GLU180      0.2260
     88  O          9.6030   30.0560    8.8480 O.2   180  GLU180     -0.2867
     89  CB         7.4820   31.2150    7.7410 C.3   180  GLU180      0.0388
     90  CG         6.5310   32.4030    7.6530 C.3   180  GLU180      0.1160
     91  CD         5.0680   32.0080    7.5400 C.2   180  GLU180      0.3649
     92  OE1        4.6140   31.7600    6.4080 O.co2 180  GLU180     -0.2457
     93  OE2        4.3670   31.9480    8.5730 O.co2 180  GLU180     -0.2457
     94  N          7.7560   23.0210    3.3140 N.3   184  VAL184     -0.1245
     95  CA         6.6540   22.0930    3.5110 C.3   184  VAL184      0.1561
     96  C          6.7580   21.0970    2.3870 C.2   184  VAL184      0.2260
     97  O          6.6640   21.4560    1.1980 O.2   184  VAL184     -0.2867
     98  CB         5.2340   22.7060    3.4550 C.3   184  VAL184      0.0252
     99  CG1        4.2190   21.5690    3.4410 C.3   184  VAL184      0.0019
    100  CG2        4.9700   23.5800    4.6680 C.3   184  VAL184      0.0019
    101  N          2.1900   15.3850    4.6930 N.3   191  ILE191     -0.1245
    102  CA         2.5410   16.7810    4.4070 C.3   191  ILE191      0.1561
    103  C          3.4410   17.1570    5.5770 C.2   191  ILE191      0.2260
    104  O          2.9490   17.3990    6.6720 O.2   191  ILE191     -0.2867
    105  CB         1.3130   17.7450    4.4400 C.3   191  ILE191      0.0252
    106  CG1        0.3050   17.3980    3.3290 C.3   191  ILE191      0.0019
    107  CG2        1.7930   19.1830    4.3530 C.3   191  ILE191      0.0019
    108  CD1        0.8420   17.4550    1.9260 C.3   191  ILE191      0.0001
    109  N         14.2170   24.8540    7.5870 N.3   196  ARG196     -0.1245
    110  CA        15.0340   25.0520    6.3910 C.3   196  ARG196      0.1563
    111  C         16.4150   24.3810    6.5010 C.2   196  ARG196      0.2260
    112  O         16.9760   23.9230    5.5110 O.2   196  ARG196     -0.2867
    113  CB        15.1900   26.5630    6.1320 C.3   196  ARG196      0.0307
    114  CG        15.9030   26.9090    4.8460 C.3   196  ARG196      0.0489
    115  CD        15.0790   26.4580    3.6700 C.3   196  ARG196      0.2205
    116  NE        15.8290   26.4300    2.4200 N.pl3 196  ARG196     -0.0865
    117  CZ        16.7870   25.5510    2.1380 C.cat 196  ARG196      0.5346
    118  NH1       17.1210   24.6160    3.0230 N.pl3 196  ARG196      0.1354
    119  NH2       17.3990   25.5990    0.9580 N.pl3 196  ARG196      0.1354
    120  N         17.2680   21.1140   -1.0490 N.3   201  ILE201     -0.1231
    121  CA        16.5150   21.1340   -2.3010 C.3   201  ILE201      0.1692
    122  C         17.4260   21.0120   -3.5250 C.2   201  ILE201      0.2591
    123  O         18.5670   21.4950   -3.5240 O.2   201  ILE201     -0.2718
    124  CB        15.7250   22.4500   -2.4620 C.3   201  ILE201      0.0266
    125  CG1       15.3280   23.0180   -1.0910 C.3   201  ILE201      0.0019
    126  CG2       14.5080   22.2050   -3.3310 C.3   201  ILE201      0.0020
    127  CD1       14.2820   22.2250   -0.3520 C.3   201  ILE201      0.0001
    128  N         16.9130   20.3860   -4.5770 N.am  202  ILE202     -0.1980
    129  CA        17.6700   20.2220   -5.8130 C.3   202  ILE202      0.1595
    130  C         16.7180   20.1810   -6.9970 C.2   202  ILE202      0.2287
    131  O         15.7120   19.4850   -6.9540 O.2   202  ILE202     -0.2864
    132  CB        18.4610   18.9050   -5.8140 C.3   202  ILE202      0.0276
    133  CG1       17.5130   17.7480   -5.4830 C.3   202  ILE202      0.0022
    134  CG2       19.6300   18.9920   -4.8410 C.3   202  ILE202      0.0022
    135  CD1       18.1070   16.3850   -5.6620 C.3   202  ILE202      0.0001
@<TRIPOS>BOND
     1    24    23    1
     2    24    25    1
     3    23    22    1
     4    25    26    1
     5    22    19    1
     6     1     2    1
     7     8     7    2
     8    19    18    1
     9    19    20    1
    10     2     5    1
    11     2     3    1
    12     7     6    1
    13     7     9   am
    14     5     6    1
    15    21    20    2
    16    20    27   am
    17     3    10   am
    18     3     4    2
    19    10    11    1
    20    27    28    1
    21    44    45   ar
    22    44    42   ar
    23    45    43   ar
    24    12    11    1
    25    12    13    2
    26    11    14    1
    27    42    40   ar
    28    43    41   ar
    29    35    36    1
    30    14    15    1
    31    14    16    1
    32    28    29    1
    33    28    31    1
    34    29    30    2
    35    40    41   ar
    36    40    39    1
    37    15    17    1
    38   130   131    2
    39   130   129    1
    40    36    39    1
    41    36    37    1
    42    31    33    1
    43    31    32    1
    44   132   129    1
    45   132   133    1
    46   132   134    1
    47   129   128    1
    48    32    34    1
    49    37    38    2
    50   135   133    1
    51   128   122   am
    52    49    48    2
    53   122   123    2
    54   122   121    1
    55   126   124    1
    56    53    51    1
    57    46    47    1
    58    50    47    1
    59    50    51    1
    60    48    47    1
    61    48    54   am
    62   124   121    1
    63   124   125    1
    64    57    56    2
    65    51    52    1
    66    60    59    1
    67   121   120    1
    68    55    54    1
    69    55    56    1
    70    55    58    1
    71    56    62   am
    72    84    83    1
    73    59    58    1
    74    59    61    1
    75   125   127    1
    76    82    83    1
    77    82    81    1
    78    62    63    1
    79    63    64    1
    80    63    66    1
    81    80    81    1
    82    80    77    1
    83    68    70   ar
    84    68    67   ar
    85    76    64   am
    86    76    77    1
    87    64    65    2
    88    66    67    1
    89    79    78    2
    90   119   117    1
    91    70    71   ar
    92    67    69   ar
    93    77    78    1
    94    97    96    2
    95   108   106    1
    96   117   116    2
    97   117   118    1
    98    71    69   ar
    99    71    73   ar
   100    69    72   ar
   101    96    95    1
   102   116   115    1
   103    73    75   ar
   104    94    95    1
   105   106   105    1
   106    99    98    1
   107    98    95    1
   108    98   100    1
   109    72    74   ar
   110   115   114    1
   111   107   105    1
   112   102   105    1
   113   102   101    1
   114   102   103    1
   115    75    74   ar
   116   114   113    1
   117   112   111    2
   118   103   104    2
   119    85    86    1
   120   113   110    1
   121   110   111    1
   122   110   109    1
   123    92    91   ar
   124    86    89    1
   125    86    87    1
   126    91    90    1
   127    91    93   ar
   128    90    89    1
   129    87    88    2
