@<TRIPOS>MOLECULE
tmp/1ex7A00.pdb
 141 131 0 0 0
SMALL
GASTEIGER

@<TRIPOS>ATOM
      1  N         33.7570   39.1470   63.9380 N.3    10  SER10      -0.1217
      2  CA        33.6030   40.5080   63.4300 C.3    10  SER10       0.1889
      3  C         34.7010   40.7610   62.3950 C.2    10  SER10       0.2288
      4  O         35.8060   40.2520   62.6250 O.2    10  SER10      -0.2866
      5  CB        33.6600   41.5670   64.5350 C.3    10  SER10       0.2089
      6  OG        33.3880   41.0200   65.8050 O.3    10  SER10      -0.2183
      7  N         29.5920   40.3680   57.9360 N.3    14  LYS14      -0.1245
      8  CA        28.3550   39.7900   58.4180 C.3    14  LYS14       0.1561
      9  C         27.2610   40.8350   58.6670 C.2    14  LYS14       0.2260
     10  O         26.0690   40.5940   58.4710 O.2    14  LYS14      -0.2867
     11  CB        28.6780   39.0030   59.7010 C.3    14  LYS14       0.0271
     12  CG        27.5170   38.7770   60.6510 C.3    14  LYS14       0.0035
     13  CD        27.8420   37.6100   61.5860 C.3    14  LYS14       0.0206
     14  CE        28.9260   38.0130   62.5670 C.3    14  LYS14       0.1093
     15  NZ        28.4000   39.0710   63.4780 N.3    14  LYS14      -0.1314
     16  N         19.6450   42.4570   71.4650 N.3    34  SER34      -0.1217
     17  CA        20.3310   42.0560   72.6870 C.3    34  SER34       0.1889
     18  C         20.3800   43.1950   73.6960 C.2    34  SER34       0.2288
     19  O         20.4020   44.3710   73.3270 O.2    34  SER34      -0.2866
     20  CB        21.7610   41.5670   72.3650 C.3    34  SER34       0.2089
     21  OG        21.6970   40.4600   71.4590 O.3    34  SER34      -0.2183
     22  N         27.5030   47.6480   77.4600 N.3    38  ARG38      -0.1245
     23  CA        28.5380   48.5320   76.8830 C.3    38  ARG38       0.1563
     24  C         27.9440   49.8600   76.4590 C.2    38  ARG38       0.2260
     25  O         26.7660   50.0140   76.2000 O.2    38  ARG38      -0.2867
     26  CB        29.2890   47.8770   75.7230 C.3    38  ARG38       0.0307
     27  CG        28.6770   47.8210   74.3560 C.3    38  ARG38       0.0489
     28  CD        29.7400   47.9040   73.2500 C.3    38  ARG38       0.2205
     29  NE        29.2170   47.4990   71.9610 N.pl3  38  ARG38      -0.0865
     30  CZ        28.3890   48.1450   71.1590 C.cat  38  ARG38       0.5346
     31  NH1       27.9620   49.3330   71.5670 N.pl3  38  ARG38       0.1354
     32  NH2       28.0010   47.6360   70.0050 N.pl3  38  ARG38       0.1354
     33  N         27.8190   53.1590   70.4580 N.3    41  ARG41      -0.1245
     34  CA        28.7570   53.5880   69.4420 C.3    41  ARG41       0.1563
     35  C         28.0330   54.4370   68.4060 C.2    41  ARG41       0.2260
     36  O         26.8070   54.3000   68.2820 O.2    41  ARG41      -0.2867
     37  CB        29.4180   52.4150   68.7040 C.3    41  ARG41       0.0307
     38  CG        30.7060   51.9580   69.3640 C.3    41  ARG41       0.0489
     39  CD        31.0550   50.5620   68.8690 C.3    41  ARG41       0.2205
     40  NE        31.6840   49.8070   69.9730 N.pl3  41  ARG41      -0.0865
     41  CZ        31.7990   48.4790   69.8760 C.cat  41  ARG41       0.5346
     42  NH1       31.3340   47.8940   68.7740 N.pl3  41  ARG41       0.1354
     43  NH2       32.3560   47.7870   70.8490 N.pl3  41  ARG41       0.1354
     44  N         20.8920   47.4620   69.8990 N.3    50  TYR50      -0.1241
     45  CA        20.9510   46.9680   71.2320 C.3    50  TYR50       0.1605
     46  C         19.9910   47.7040   72.1610 C.2    50  TYR50       0.2264
     47  O         19.7040   48.8520   71.8280 O.2    50  TYR50      -0.2867
     48  CB        22.3220   47.2000   71.8830 C.3    50  TYR50       0.0534
     49  CG        23.4260   46.2900   71.4230 C.ar   50  TYR50      -0.0201
     50  CD1       23.5180   44.9680   71.8500 C.ar   50  TYR50      -0.0009
     51  CD2       24.3830   46.7590   70.5350 C.ar   50  TYR50      -0.0009
     52  CE1       24.5590   44.1620   71.3800 C.ar   50  TYR50       0.0417
     53  CE2       25.4220   45.9620   70.0770 C.ar   50  TYR50       0.0417
     54  CZ        25.4930   44.6550   70.5140 C.ar   50  TYR50       0.1957
     55  OH        26.5270   43.8640   70.0780 O.3    50  TYR50      -0.2866
     56  N         20.0640   33.4580   77.0250 N.3    69  GLU69      -0.1245
     57  CA        21.4760   33.1830   77.2610 C.3    69  GLU69       0.1567
     58  C         22.1130   34.5240   77.6210 C.2    69  GLU69       0.2260
     59  O         21.5500   35.5550   77.2050 O.2    69  GLU69      -0.2867
     60  CB        22.1870   32.5410   76.0460 C.3    69  GLU69       0.0388
     61  CG        22.1450   33.3090   74.7370 C.3    69  GLU69       0.1160
     62  CD        23.2010   34.3990   74.5660 C.2    69  GLU69       0.3649
     63  OE1       24.3600   34.2910   75.0470 O.co2  69  GLU69      -0.2457
     64  OE2       22.8370   35.4460   74.0000 O.co2  69  GLU69      -0.2457
     65  N         26.3300   36.5160   78.4840 N.3    71  ALA71      -0.1301
     66  CA        27.7550   36.2700   78.5460 C.3    71  ALA71       0.1247
     67  C         28.4150   37.5860   78.9040 C.3    71  ALA71       0.2009
     68  O         27.6660   38.5530   78.9140 O.3    71  ALA71      -0.2188
     69  CB        28.3130   35.7930   77.2110 C.3    71  ALA71       0.0233
     70  N         31.8250   39.9970   77.6250 N.3    73  PHE73      -0.1241
     71  CA        32.8640   40.1500   76.5890 C.3    73  PHE73       0.1605
     72  C         33.6070   41.4310   76.9410 C.2    73  PHE73       0.2264
     73  O         32.9700   42.4750   77.0570 O.2    73  PHE73      -0.2867
     74  CB        32.1970   40.1130   75.2160 C.3    73  PHE73       0.0534
     75  CG        33.1500   40.5940   74.1380 C.ar   73  PHE73      -0.0203
     76  CD1       34.0290   39.6840   73.5680 C.ar   73  PHE73      -0.0042
     77  CD2       33.1630   41.9080   73.7160 C.ar   73  PHE73      -0.0042
     78  CE1       34.9250   40.0770   72.5920 C.ar   73  PHE73      -0.0003
     79  CE2       34.0590   42.3140   72.7480 C.ar   73  PHE73      -0.0003
     80  CZ        34.9460   41.4050   72.1940 C.ar   73  PHE73      -0.0000
     81  N         26.3620   41.0300   77.7790 N.3    78  TYR78      -0.1227
     82  CA        25.5090   40.9110   76.6400 C.3    78  TYR78       0.1736
     83  C         24.5440   39.7450   76.7910 C.2    78  TYR78       0.2596
     84  O         24.9460   38.7050   77.3250 O.2    78  TYR78      -0.2718
     85  CB        26.3500   40.6370   75.3980 C.3    78  TYR78       0.0548
     86  CG        27.4060   41.6130   75.0160 C.ar   78  TYR78      -0.0200
     87  CD1       28.6190   41.7790   75.6840 C.ar   78  TYR78      -0.0009
     88  CD2       27.1230   42.3970   73.8880 C.ar   78  TYR78      -0.0009
     89  CE1       29.5510   42.7190   75.2440 C.ar   78  TYR78       0.0417
     90  CE2       28.0710   43.3220   73.4860 C.ar   78  TYR78       0.0417
     91  CZ        29.2650   43.4910   74.1420 C.ar   78  TYR78       0.1957
     92  OH        30.1260   44.4590   73.6230 O.3    78  TYR78      -0.2866
     93  N         23.3190   39.8680   76.2950 N.am   79  GLY79      -0.1942
     94  CA        22.4280   38.7000   76.3870 C.3    79  GLY79       0.2014
     95  C         21.1820   38.7830   75.5330 C.2    79  GLY79       0.2639
     96  O         20.7280   39.8750   75.1940 O.2    79  GLY79      -0.2714
     97  N         20.6550   37.6140   75.1880 N.am   80  SER80      -0.1949
     98  CA        19.4530   37.4290   74.4080 C.3    80  SER80       0.1924
     99  C         18.2870   37.2260   75.3630 C.2    80  SER80       0.2314
    100  O         18.3350   36.2950   76.1750 O.2    80  SER80      -0.2863
    101  CB        19.6660   36.2200   73.4910 C.3    80  SER80       0.2116
    102  OG        20.6150   36.5510   72.5050 O.3    80  SER80      -0.2180
    103  N         22.0000   37.3790   66.4530 N.3    98  ASP98      -0.1225
    104  CA        23.4020   37.6260   66.1080 C.3    98  ASP98       0.1805
    105  C         24.1920   37.5690   67.4010 C.2    98  ASP98       0.2598
    106  O         24.2210   38.5490   68.1620 O.2    98  ASP98      -0.2718
    107  CB        23.5920   38.9640   65.4100 C.3    98  ASP98       0.1424
    108  CG        25.0000   39.2860   64.9560 C.2    98  ASP98       0.3668
    109  OD1       25.9060   38.4130   64.9960 O.co2  98  ASP98      -0.2456
    110  OD2       25.2260   40.4550   64.5490 O.co2  98  ASP98      -0.2456
    111  N         24.8040   36.3940   67.6690 N.am   99  ILE99      -0.1966
    112  CA        25.4720   36.1810   68.9530 C.3    99  ILE99       0.1727
    113  C         26.7720   35.4420   68.7680 C.2    99  ILE99       0.2616
    114  O         27.0900   34.9490   67.6960 O.2    99  ILE99      -0.2715
    115  CB        24.5610   35.3470   69.8880 C.3    99  ILE99       0.0290
    116  CG1       24.3140   33.9430   69.3190 C.3    99  ILE99       0.0022
    117  CG2       23.2510   36.0920   70.1670 C.3    99  ILE99       0.0023
    118  CD1       23.3030   33.1310   70.1150 C.3    99  ILE99       0.0001
    119  N         27.5830   35.3310   69.8210 N.am  100  ASP100     -0.1971
    120  CA        28.9140   34.7460   69.5550 C.3   100  ASP100      0.1709
    121  C         28.9140   33.2580   69.7710 C.2   100  ASP100      0.2293
    122  O         27.8630   32.6460   69.9870 O.2   100  ASP100     -0.2864
    123  CB        29.9060   35.4660   70.4680 C.3   100  ASP100      0.1436
    124  CG        29.7600   35.1870   71.9530 C.2   100  ASP100      0.3671
    125  OD1       28.8950   34.3970   72.4260 O.co2 100  ASP100     -0.2456
    126  OD2       30.5460   35.7790   72.7120 O.co2 100  ASP100     -0.2456
    127  N         27.2160   32.0560   72.9070 N.3   103  GLY103     -0.1225
    128  CA        25.7650   32.0950   72.7610 C.3   103  GLY103      0.1811
    129  C         25.2940   30.8990   71.9570 C.2   103  GLY103      0.2280
    130  O         24.3080   30.2770   72.3140 O.2   103  GLY103     -0.2866
    131  N         41.6080   38.6100   69.0410 N.3   146  ARG146     -0.1245
    132  CA        40.4770   38.3190   68.1710 C.3   146  ARG146      0.1563
    133  C         40.8120   37.1940   67.2020 C.2   146  ARG146      0.2260
    134  O         39.9010   36.4430   66.8410 O.2   146  ARG146     -0.2867
    135  CB        40.1090   39.5730   67.3640 C.3   146  ARG146      0.0307
    136  CG        39.4320   40.6420   68.2070 C.3   146  ARG146      0.0489
    137  CD        39.4190   41.9670   67.4480 C.3   146  ARG146      0.2205
    138  NE        38.2490   42.7740   67.8110 N.pl3 146  ARG146     -0.0865
    139  CZ        37.2900   43.0500   66.9360 C.cat 146  ARG146      0.5346
    140  NH1       37.3650   42.6020   65.6840 N.pl3 146  ARG146      0.1354
    141  NH2       36.2570   43.7850   67.3280 N.pl3 146  ARG146      0.1354
@<TRIPOS>BOND
     1     7     8    1
     2     8     9    1
     3     8    11    1
     4    10     9    2
     5    11    12    1
     6    12    13    1
     7    13    14    1
     8     3     4    2
     9     3     2    1
    10    14    15    1
    11     2     1    1
    12     2     5    1
    13     5     6    1
    14   110   108   ar
    15   108   109   ar
    16   108   107    1
    17   107   104    1
    18   140   139    1
    19   104   103    1
    20   104   105    1
    21   134   133    2
    22   139   141    1
    23   139   138    2
    24   133   132    1
    25   135   132    1
    26   135   136    1
    27   105   111   am
    28   105   106    2
    29   137   138    1
    30   137   136    1
    31   111   112    1
    32   114   113    2
    33   132   131    1
    34    36    35    2
    35    35    34    1
    36    37    38    1
    37    37    34    1
    38   113   112    1
    39   113   119   am
    40    42    41    1
    41    39    38    1
    42    39    40    1
    43   112   115    1
    44   116   115    1
    45   116   118    1
    46    34    33    1
    47   120   121    1
    48   120   119    1
    49   120   123    1
    50   121   122    2
    51    41    40    2
    52    41    43    1
    53   115   117    1
    54    44    45    1
    55    32    30    1
    56    53    54   ar
    57    53    51   ar
    58    55    54    1
    59   123   124    1
    60    54    52   ar
    61    51    49   ar
    62    30    31    1
    63    30    29    2
    64    45    48    1
    65    45    46    1
    66    52    50   ar
    67    49    50   ar
    68    49    48    1
    69    21    20    1
    70    16    17    1
    71    47    46    2
    72   124   125   ar
    73   124   126   ar
    74   129   130    2
    75   129   128    1
    76    29    28    1
    77    80    78   ar
    78    80    79   ar
    79    20    17    1
    80   102   101    1
    81    78    76   ar
    82    17    18    1
    83    79    77   ar
    84   128   127    1
    85    28    27    1
    86    19    18    2
    87    90    88   ar
    88    90    91   ar
    89   101    98    1
    90    76    75   ar
    91    92    91    1
    92    77    75   ar
    93    88    86   ar
    94    64    62   ar
    95    75    74    1
    96    91    89   ar
    97    27    26    1
    98    98    97    1
    99    98    99    1
   100    62    61    1
   101    62    63   ar
   102    61    60    1
   103    86    85    1
   104    86    87   ar
   105    97    95   am
   106    96    95    2
   107    74    71    1
   108    89    87   ar
   109    99   100    2
   110    85    82    1
   111    95    94    1
   112    26    23    1
   113    60    57    1
   114    25    24    2
   115    93    94    1
   116    93    83   am
   117    24    23    1
   118    71    72    1
   119    71    70    1
   120    82    83    1
   121    82    81    1
   122    83    84    2
   123    23    22    1
   124    72    73    2
   125    56    57    1
   126    59    58    2
   127    69    66    1
   128    57    58    1
   129    65    66    1
   130    66    67    1
   131    67    68    1
