@<TRIPOS>MOLECULE
tmp/1ex8A00.pdb
 247 238 0 0 0
SMALL
GASTEIGER

@<TRIPOS>ATOM
      1  N          8.4360   18.7880   12.7240 N.3     8  GLY8       -0.1225
      2  CA         9.3150   19.8310   13.2200 C.3     8  GLY8        0.1811
      3  C         10.5290   19.2670   13.9330 C.2     8  GLY8        0.2280
      4  O         10.4660   18.1940   14.5360 O.2     8  GLY8       -0.2866
      5  N         12.1430   27.8190    9.7770 N.3    42  THR42      -0.1204
      6  CA        11.1750   28.7680   10.3380 C.3    42  THR42       0.1979
      7  C         11.6280   29.2520   11.7030 C.2    42  THR42       0.2459
      8  O         12.2200   28.4980   12.4840 O.2    42  THR42      -0.2732
      9  CB         9.7810   28.1200   10.4390 C.3    42  THR42       0.1783
     10  OG1        9.8670   26.9830   11.3160 O.3    42  THR42      -0.2211
     11  CG2        9.3230   27.5670    9.0990 C.3    42  THR42       0.0376
     12  N         11.3680   30.5160   12.0280 N.am   43  PRO43      -0.2728
     13  CA        11.8130   31.0310   13.3280 C.3    43  PRO43       0.1401
     14  C         11.0220   30.4070   14.4670 C.2    43  PRO43       0.2269
     15  O          9.8450   30.0890   14.3060 O.2    43  PRO43      -0.2865
     16  CB        11.5260   32.5320   13.2170 C.3    43  PRO43       0.0296
     17  CG        10.4200   32.6210   12.2250 C.3    43  PRO43       0.0237
     18  CD        10.6540   31.5150   11.2300 C.3    43  PRO43       0.0939
     19  N          8.7130   29.7060   17.5140 N.3    45  LEU45      -0.1245
     20  CA         7.4000   30.3260   17.7050 C.3    45  LEU45       0.1561
     21  C          7.3630   31.1070   19.0140 C.2    45  LEU45       0.2260
     22  O          6.7020   32.1440   19.1050 O.2    45  LEU45      -0.2867
     23  CB         6.3520   29.2190   17.6080 C.3    45  LEU45       0.0270
     24  CG         5.0350   29.4140   18.3470 C.3    45  LEU45       0.0019
     25  CD1        3.9960   29.9860   17.3960 C.3    45  LEU45       0.0001
     26  CD2        4.5710   28.1030   18.9690 C.3    45  LEU45       0.0001
     27  N         13.6570   26.1980   13.1710 N.3    53  TYR53      -0.1241
     28  CA        13.0700   24.8870   12.9740 C.3    53  TYR53       0.1605
     29  C         13.0830   24.4850   11.5080 C.2    53  TYR53       0.2264
     30  O         12.8780   25.3350   10.6460 O.2    53  TYR53      -0.2867
     31  CB        11.6080   24.8730   13.4550 C.3    53  TYR53       0.0534
     32  CG        11.5000   24.7080   14.9540 C.ar   53  TYR53      -0.0201
     33  CD1       11.8920   25.7380   15.8000 C.ar   53  TYR53      -0.0009
     34  CD2       11.0230   23.5460   15.5220 C.ar   53  TYR53      -0.0009
     35  CE1       11.7960   25.5900   17.1740 C.ar   53  TYR53       0.0417
     36  CE2       10.9200   23.3880   16.8930 C.ar   53  TYR53       0.0417
     37  CZ        11.3130   24.4220   17.7160 C.ar   53  TYR53       0.1957
     38  OH        11.2210   24.2840   19.0790 O.3    53  TYR53      -0.2866
     39  N         10.6140   22.6160    9.2720 N.3    55  ASN55      -0.1240
     40  CA         9.2010   22.2780    9.3410 C.3    55  ASN55       0.1653
     41  C          8.7890   21.6360    8.0290 C.2    55  ASN55       0.2266
     42  O          9.3030   22.0380    6.9860 O.2    55  ASN55      -0.2867
     43  CB         8.3670   23.5210    9.6280 C.3    55  ASN55       0.1155
     44  CG         8.1100   23.7480   11.1030 C.2    55  ASN55       0.2627
     45  OD1        8.6470   24.6750   11.7150 O.2    55  ASN55      -0.2716
     46  ND2        7.2750   22.9020   11.6890 N.am   55  ASN55      -0.0877
     47  N         -1.4570    7.9000   16.9990 N.3    70  LEU70      -0.1245
     48  CA        -0.6550    8.6580   17.9650 C.3    70  LEU70       0.1561
     49  C          0.3390    7.7640   18.6900 C.2    70  LEU70       0.2260
     50  O          1.4740    8.1300   19.0090 O.2    70  LEU70      -0.2867
     51  CB        -1.5840    9.3660   18.9530 C.3    70  LEU70       0.0270
     52  CG        -0.9850   10.3280   19.9710 C.3    70  LEU70       0.0019
     53  CD1       -0.3360   11.5270   19.2890 C.3    70  LEU70       0.0001
     54  CD2       -2.0490   10.7890   20.9630 C.3    70  LEU70       0.0001
     55  N          4.2040    8.6100   18.2940 N.3    74  GLN74      -0.1245
     56  CA         4.9140    8.9350   19.5300 C.3    74  GLN74       0.1566
     57  C          6.0730    7.9700   19.7410 C.2    74  GLN74       0.2260
     58  O          7.0830    8.3120   20.3550 O.2    74  GLN74      -0.2867
     59  CB         3.9690    8.9220   20.7270 C.3    74  GLN74       0.0367
     60  CG         2.8380    9.9420   20.6480 C.3    74  GLN74       0.0905
     61  CD         2.1950   10.0780   22.0160 C.2    74  GLN74       0.2608
     62  OE1        2.1420    9.1050   22.7740 O.2    74  GLN74      -0.2717
     63  NE2        1.7090   11.2700   22.3270 N.am   74  GLN74      -0.0878
     64  N         13.4170   12.5420   21.3780 N.3    82  ARG82      -0.1245
     65  CA        12.6520   13.7220   21.7830 C.3    82  ARG82       0.1563
     66  C         12.3250   13.6800   23.2720 C.2    82  ARG82       0.2260
     67  O         11.7910   12.6950   23.7720 O.2    82  ARG82      -0.2867
     68  CB        11.3470   13.8450   20.9970 C.3    82  ARG82       0.0307
     69  CG        10.3420   14.7980   21.6400 C.3    82  ARG82       0.0489
     70  CD         8.9760   14.6190   21.0130 C.3    82  ARG82       0.2205
     71  NE         8.2580   15.8740   20.7950 N.pl3  82  ARG82      -0.0865
     72  CZ         7.3030   16.2800   21.6270 C.cat  82  ARG82       0.5346
     73  NH1        6.9980   15.5290   22.6770 N.pl3  82  ARG82       0.1354
     74  NH2        6.6580   17.4150   21.4170 N.pl3  82  ARG82       0.1354
     75  N         10.6170   14.9140   26.9130 N.3    84  ARG84      -0.1245
     76  CA         9.5330   15.5850   27.6480 C.3    84  ARG84       0.1563
     77  C         10.1090   16.6820   28.4990 C.2    84  ARG84       0.2260
     78  O         10.8340   16.4170   29.4700 O.2    84  ARG84      -0.2867
     79  CB         8.6960   14.6250   28.4930 C.3    84  ARG84       0.0307
     80  CG         7.1740   14.7470   28.3240 C.3    84  ARG84       0.0489
     81  CD         6.6670   16.1750   28.4970 C.3    84  ARG84       0.2205
     82  NE         5.2000   16.1670   28.5230 N.pl3  84  ARG84      -0.0865
     83  CZ         4.3910   17.0080   27.8390 C.cat  84  ARG84       0.5346
     84  NH1        4.9610   17.9850   27.1460 N.pl3  84  ARG84       0.1354
     85  NH2        3.0490   16.8920   27.8910 N.pl3  84  ARG84       0.1354
     86  N          6.6620   24.6690   27.6200 N.3    88  ARG88      -0.1231
     87  CA         6.4660   24.4870   26.1930 C.3    88  ARG88       0.1694
     88  C          7.4110   25.4120   25.3930 C.2    88  ARG88       0.2592
     89  O          8.0770   26.2600   26.0100 O.2    88  ARG88      -0.2718
     90  CB         5.0380   24.8070   25.7590 C.3    88  ARG88       0.0321
     91  CG         3.9550   23.7890   26.0630 C.3    88  ARG88       0.0489
     92  CD         2.6420   24.4850   26.3870 C.3    88  ARG88       0.2205
     93  NE         1.5510   23.5470   26.6230 N.pl3  88  ARG88      -0.0865
     94  CZ         0.8630   23.4680   27.7560 C.cat  88  ARG88       0.5346
     95  NH1        1.1360   24.2660   28.7810 N.pl3  88  ARG88       0.1354
     96  NH2       -0.1170   22.5810   27.8750 N.pl3  88  ARG88       0.1354
     97  N          7.4300   25.0840   24.1150 N.am   89  TRP89      -0.1976
     98  CA         8.1140   25.7880   23.0120 C.3    89  TRP89       0.1640
     99  C          9.6510   25.8480   23.1280 C.2    89  TRP89       0.2290
    100  O         10.2380   26.5750   22.3220 O.2    89  TRP89      -0.2864
    101  CB         7.5320   27.1950   22.8350 C.3    89  TRP89       0.0576
    102  CG         6.0530   27.1500   22.5750 C.ar   89  TRP89       0.0006
    103  CD1        5.3050   26.0480   22.2710 C.ar   89  TRP89       0.0946
    104  CD2        5.1410   28.2560   22.6020 C.ar   89  TRP89       0.0152
    105  NE1        3.9860   26.3860   22.1040 N.ar   89  TRP89      -0.2442
    106  CE2        3.8610   27.7450   22.3020 C.ar   89  TRP89       0.0810
    107  CE3        5.2830   29.6270   22.8510 C.ar   89  TRP89       0.0012
    108  CZ2        2.7320   28.5650   22.2430 C.ar   89  TRP89       0.0191
    109  CZ3        4.1630   30.4370   22.7900 C.ar   89  TRP89       0.0001
    110  CH2        2.9020   29.9050   22.4880 C.ar   89  TRP89       0.0015
    111  N         13.6730   20.8060   20.4570 N.3    92  ARG92      -0.1245
    112  CA        13.4890   19.3540   20.6380 C.3    92  ARG92       0.1563
    113  C         13.8960   18.5960   19.3950 C.2    92  ARG92       0.2260
    114  O         13.8570   19.1200   18.2770 O.2    92  ARG92      -0.2867
    115  CB        12.0360   19.1320   21.0590 C.3    92  ARG92       0.0307
    116  CG        11.0150   19.0520   19.9560 C.3    92  ARG92       0.0489
    117  CD        10.5260   20.4020   19.4790 C.3    92  ARG92       0.2205
    118  NE        10.0280   21.2680   20.5310 N.pl3  92  ARG92      -0.0865
    119  CZ         8.8390   21.3180   21.1050 C.cat  92  ARG92       0.5346
    120  NH1        7.8640   20.4880   20.7480 N.pl3  92  ARG92       0.1354
    121  NH2        8.6150   22.2190   22.0630 N.pl3  92  ARG92       0.1354
    122  N          9.1830   16.4250   16.5450 N.3    95  ASP95      -0.1225
    123  CA         7.7760   16.6420   16.8000 C.3    95  ASP95       0.1805
    124  C          6.9950   15.9870   15.6710 C.2    95  ASP95       0.2598
    125  O          7.1850   16.3300   14.5060 O.2    95  ASP95      -0.2718
    126  CB         7.4240   18.1190   16.8600 C.3    95  ASP95       0.1424
    127  CG         7.5540   18.7430   18.2310 C.2    95  ASP95       0.3668
    128  OD1        7.7020   18.0100   19.2290 O.co2  95  ASP95      -0.2456
    129  OD2        7.5010   19.9930   18.3060 O.co2  95  ASP95      -0.2456
    130  N          6.1340   15.0420   16.0260 N.am   96  LEU96      -0.1966
    131  CA         5.1780   14.6020   15.0080 C.3    96  LEU96       0.1728
    132  C          3.8050   14.9390   15.5800 C.2    96  LEU96       0.2616
    133  O          3.4210   14.3760   16.5980 O.2    96  LEU96      -0.2715
    134  CB         5.3470   13.1300   14.6450 C.3    96  LEU96       0.0311
    135  CG         6.7280   12.8060   14.0530 C.3    96  LEU96       0.0022
    136  CD1        6.9450   11.2970   14.0020 C.3    96  LEU96       0.0001
    137  CD2        6.8720   13.4180   12.6730 C.3    96  LEU96       0.0001
    138  N          3.1380   15.8790   14.9230 N.am   97  ASP97      -0.1957
    139  CA         1.8650   16.4250   15.3670 C.3    97  ASP97       0.1840
    140  C          0.7860   16.1520   14.3300 C.2    97  ASP97       0.2621
    141  O          0.9350   16.4400   13.1440 O.2    97  ASP97      -0.2715
    142  CB         1.9820   17.9310   15.6200 C.3    97  ASP97       0.1450
    143  CG         2.5890   18.2680   16.9640 C.2    97  ASP97       0.3671
    144  OD1        2.2170   17.6570   17.9910 O.co2  97  ASP97      -0.2456
    145  OD2        3.4670   19.1620   16.9800 O.co2  97  ASP97      -0.2456
    146  N         -0.3270   15.5720   14.7850 N.am   98  ILE98      -0.1977
    147  CA        -1.4210   15.3930   13.8320 C.3    98  ILE98       0.1596
    148  C         -2.2050   16.6920   13.7240 C.2    98  ILE98       0.2287
    149  O         -2.9300   17.0680   14.6540 O.2    98  ILE98      -0.2864
    150  CB        -2.3540   14.2520   14.2660 C.3    98  ILE98       0.0276
    151  CG1       -1.6700   12.8780   14.2830 C.3    98  ILE98       0.0022
    152  CG2       -3.6060   14.2130   13.4130 C.3    98  ILE98       0.0022
    153  CD1       -2.0010   12.1030   15.5470 C.3    98  ILE98       0.0001
    154  N         -8.6630   13.0540   25.8400 N.3   109  GLU109     -0.1231
    155  CA        -7.6370   13.1810   26.8570 C.3   109  GLU109      0.1699
    156  C         -6.2340   13.3620   26.2700 C.2   109  GLU109      0.2592
    157  O         -5.4600   14.1680   26.7920 O.2   109  GLU109     -0.2718
    158  CB        -7.6400   11.9420   27.7640 C.3   109  GLU109      0.0402
    159  CG        -8.4890   12.0870   29.0190 C.3   109  GLU109      0.1161
    160  CD        -7.8620   13.0360   30.0280 C.2   109  GLU109      0.3649
    161  OE1       -6.7950   13.6130   29.7170 O.co2 109  GLU109     -0.2457
    162  OE2       -8.4430   13.1970   31.1250 O.co2 109  GLU109     -0.2457
    163  N         -5.9480   12.6140   25.2190 N.am  110  ARG110     -0.1966
    164  CA        -4.6930   12.5430   24.4980 C.3   110  ARG110      0.1729
    165  C         -4.6990   13.3370   23.1990 C.2   110  ARG110      0.2616
    166  O         -3.6760   13.9070   22.7950 O.2   110  ARG110     -0.2715
    167  CB        -4.3620   11.0770   24.1710 C.3   110  ARG110      0.0348
    168  CG        -4.1140   10.2110   25.3910 C.3   110  ARG110      0.0492
    169  CD        -3.7780    8.7830   24.9940 C.3   110  ARG110      0.2205
    170  NE        -2.4600    8.6840   24.3760 N.pl3 110  ARG110     -0.0865
    171  CZ        -2.0270    7.6270   23.7000 C.cat 110  ARG110      0.5346
    172  NH1       -2.8040    6.5670   23.5430 N.pl3 110  ARG110      0.1354
    173  NH2       -0.8070    7.6390   23.1770 N.pl3 110  ARG110      0.1354
    174  N         -5.8490   13.3920   22.5210 N.am  111  LEU111     -0.1963
    175  CA        -5.8770   14.0140   21.2070 C.3   111  LEU111      0.1728
    176  C         -6.8060   15.2030   21.0330 C.2   111  LEU111      0.2617
    177  O         -7.9980   15.1580   21.3290 O.2   111  LEU111     -0.2715
    178  CB        -6.2770   12.9200   20.1860 C.3   111  LEU111      0.0311
    179  CG        -5.5890   13.0270   18.8290 C.3   111  LEU111      0.0022
    180  CD1       -4.1610   13.5320   19.0010 C.3   111  LEU111      0.0001
    181  CD2       -5.6130   11.6970   18.0870 C.3   111  LEU111      0.0001
    182  N         -6.2640   16.3010   20.4990 N.am  112  THR112     -0.1937
    183  CA        -7.0670   17.4330   20.0690 C.3   112  THR112      0.2028
    184  C         -6.9370   17.6240   18.5640 C.2   112  THR112      0.2642
    185  O         -5.8690   18.0030   18.0710 O.2   112  THR112     -0.2714
    186  CB        -6.6430   18.7650   20.7210 C.3   112  THR112      0.1808
    187  OG1       -6.9610   18.7360   22.1120 O.3   112  THR112     -0.2208
    188  CG2       -7.4170   19.9150   20.1050 C.3   112  THR112      0.0379
    189  N         -8.0020   17.3700   17.7990 N.am  113  VAL113     -0.1977
    190  CA        -7.8030   17.5300   16.3540 C.3   113  VAL113      0.1596
    191  C         -8.9910   18.2870   15.7750 C.2   113  VAL113      0.2287
    192  O        -10.1220   17.9310   16.1330 O.2   113  VAL113     -0.2864
    193  CB        -7.5430   16.2100   15.6210 C.3   113  VAL113      0.0276
    194  CG1       -7.8630   16.3100   14.1400 C.3   113  VAL113      0.0022
    195  CG2       -6.0810   15.8080   15.8190 C.3   113  VAL113      0.0022
    196  N         -5.3260   20.3610   15.3000 N.3   115  HIS115     -0.1226
    197  CA        -4.3330   20.6870   16.3140 C.3   115  HIS115      0.1752
    198  C         -4.6180   22.0800   16.8720 C.2   115  HIS115      0.2596
    199  O         -4.9400   22.9970   16.1230 O.2   115  HIS115     -0.2718
    200  CB        -2.9170   20.5760   15.7510 C.3   115  HIS115      0.0759
    201  CG        -1.8150   20.6660   16.7560 C.ar  115  HIS115      0.0818
    202  ND1       -1.5870   21.7700   17.5440 N.ar  115  HIS115     -0.2268
    203  CD2       -0.8570   19.7770   17.1080 C.ar  115  HIS115      0.1154
    204  CE1       -0.5470   21.5670   18.3350 C.ar  115  HIS115      0.1986
    205  NE2       -0.0850   20.3600   18.0850 N.ar  115  HIS115     -0.2212
    206  N         -4.5250   22.1740   18.1860 N.am  116  TYR116     -0.1976
    207  CA        -4.7500   23.4110   18.9120 C.3   116  TYR116      0.1639
    208  C         -3.9910   24.5480   18.2510 C.2   116  TYR116      0.2290
    209  O         -2.8000   24.3940   17.9660 O.2   116  TYR116     -0.2864
    210  CB        -4.3080   23.2130   20.3580 C.3   116  TYR116      0.0560
    211  CG        -4.2740   24.4610   21.1990 C.ar  116  TYR116     -0.0198
    212  CD1       -5.4550   25.1140   21.5340 C.ar  116  TYR116     -0.0009
    213  CD2       -3.0680   24.9800   21.6550 C.ar  116  TYR116     -0.0009
    214  CE1       -5.4430   26.2590   22.3050 C.ar  116  TYR116      0.0417
    215  CE2       -3.0460   26.1280   22.4260 C.ar  116  TYR116      0.0417
    216  CZ        -4.2320   26.7560   22.7430 C.ar  116  TYR116      0.1957
    217  OH        -4.2160   27.8970   23.5080 O.3   116  TYR116     -0.2866
    218  N         -0.6850   29.5310   12.8800 N.3   121  ARG121     -0.1245
    219  CA         0.7140   29.1170   12.7690 C.3   121  ARG121      0.1563
    220  C          1.1730   28.8400   11.3560 C.2   121  ARG121      0.2260
    221  O          0.8930   27.8230   10.7250 O.2   121  ARG121     -0.2867
    222  CB         0.9280   27.8840   13.6630 C.3   121  ARG121      0.0307
    223  CG         0.5820   28.1960   15.1060 C.3   121  ARG121      0.0489
    224  CD         0.9420   27.0470   16.0410 C.3   121  ARG121      0.2205
    225  NE         0.5260   27.3690   17.4020 N.pl3 121  ARG121     -0.0865
    226  CZ         0.8400   26.7190   18.5080 C.cat 121  ARG121      0.5346
    227  NH1        1.6140   25.6370   18.4960 N.pl3 121  ARG121      0.1354
    228  NH2        0.3540   27.1830   19.6550 N.pl3 121  ARG121      0.1354
    229  N          3.9420   28.0180   10.1940 N.3   123  PHE123     -0.1227
    230  CA         4.8720   26.9120    9.9330 C.3   123  PHE123      0.1736
    231  C          4.0480   25.6410    9.7710 C.2   123  PHE123      0.2595
    232  O          4.4820   24.6530    9.1890 O.2   123  PHE123     -0.2718
    233  CB         5.9240   26.7930   11.0140 C.3   123  PHE123      0.0547
    234  CG         5.4280   26.6030   12.4320 C.ar  123  PHE123     -0.0202
    235  CD1        5.0420   25.3540   12.8980 C.ar  123  PHE123     -0.0042
    236  CD2        5.3430   27.6920   13.2890 C.ar  123  PHE123     -0.0042
    237  CE1        4.5750   25.1970   14.1840 C.ar  123  PHE123     -0.0003
    238  CE2        4.9020   27.5350   14.5860 C.ar  123  PHE123     -0.0003
    239  CZ         4.5330   26.2820   15.0410 C.ar  123  PHE123     -0.0000
    240  N          2.8240   25.7020   10.2970 N.am  124  MET124     -0.1979
    241  CA         1.9320   24.5640   10.0710 C.3   124  MET124      0.1605
    242  C          1.1240   24.7900    8.8000 C.2   124  MET124      0.2287
    243  O          0.9950   23.8720    7.9850 O.2   124  MET124     -0.2864
    244  CB         1.0390   24.3600   11.2790 C.3   124  MET124      0.0413
    245  CG         1.6390   23.5450   12.4120 C.3   124  MET124      0.0598
    246  SD         0.3600   23.1130   13.6170 S.3   124  MET124     -0.1393
    247  CE         1.0210   23.8880   15.0920 C.3   124  MET124      0.0692
@<TRIPOS>BOND
     1    42    41    2
     2   243   242    2
     3    41    40    1
     4   242   241    1
     5    11     9    1
     6   232   231    2
     7    39    40    1
     8    40    43    1
     9    43    44    1
    10   231   230    1
    11   231   240   am
    12     5     6    1
    13   230   229    1
    14   230   233    1
    15   241   240    1
    16   241   244    1
    17     6     9    1
    18     6     7    1
    19     9    10    1
    20    30    29    2
    21   221   220    2
    22   233   234    1
    23    44    46   am
    24    44    45    2
    25    18    12    1
    26    18    17    1
    27   244   245    1
    28   220   219    1
    29    29    28    1
    30     7    12   am
    31     7     8    2
    32    12    13    1
    33    17    16    1
    34   245   246    1
    35   234   235   ar
    36   234   236   ar
    37   137   135    1
    38     1     2    1
    39   219   218    1
    40   219   222    1
    41   235   237   ar
    42    28    27    1
    43    28    31    1
    44   141   140    2
    45    16    13    1
    46     2     3    1
    47   236   238   ar
    48    13    14    1
    49   152   150    1
    50    31    32    1
    51   246   247    1
    52   222   223    1
    53   148   147    1
    54   148   149    2
    55   147   150    1
    56   147   146    1
    57     3     4    2
    58   136   135    1
    59   135   134    1
    60   194   193    1
    61   237   239   ar
    62   150   151    1
    63   151   153    1
    64    15    14    2
    65   140   146   am
    66   140   139    1
    67   125   124    2
    68   238   239   ar
    69   134   131    1
    70   138   139    1
    71   138   132   am
    72    32    34   ar
    73    32    33   ar
    74   131   132    1
    75   131   130    1
    76   223   224    1
    77   196   197    1
    78   139   142    1
    79    34    36   ar
    80   132   133    2
    81   142   143    1
    82   193   195    1
    83   193   190    1
    84   124   130   am
    85   124   123    1
    86   200   197    1
    87   200   201    1
    88   191   192    2
    89   191   190    1
    90    33    35   ar
    91   224   225    1
    92   199   198    2
    93   197   198    1
    94   190   189    1
    95   122   123    1
    96   201   203   ar
    97   201   202   ar
    98   123   126    1
    99   126   127    1
   100   198   206   am
   101    36    37   ar
   102   143   145   ar
   103   143   144   ar
   104    47    48    1
   105   203   205   ar
   106    35    37   ar
   107    25    24    1
   108   225   226    2
   109    19    20    1
   110   202   204   ar
   111    23    20    1
   112    23    24    1
   113    20    21    1
   114    37    38    1
   115   189   184   am
   116    48    49    1
   117    48    51    1
   118   209   208    2
   119   185   184    2
   120   205   204   ar
   121   181   179    1
   122   206   207    1
   123   127   129   ar
   124   127   128   ar
   125   208   207    1
   126   114   113    2
   127    55    56    1
   128    24    26    1
   129   227   226    1
   130   226   228    1
   131   184   183    1
   132    49    50    2
   133   179   180    1
   134   179   178    1
   135   207   210    1
   136    51    52    1
   137    21    22    2
   138    53    52    1
   139   113   112    1
   140   117   116    1
   141   117   118    1
   142    56    57    1
   143    56    59    1
   144    57    58    2
   145   116   115    1
   146    52    54    1
   147   183   182    1
   148   183   186    1
   149   188   186    1
   150   178   175    1
   151   210   211    1
   152   111   112    1
   153   182   176   am
   154   118   119    2
   155   112   115    1
   156    60    59    1
   157    60    61    1
   158   186   187    1
   159   120   119    1
   160    71    70    1
   161    71    72    2
   162    68    69    1
   163    68    65    1
   164    70    69    1
   165   176   175    1
   166   176   177    2
   167   119   121    1
   168   211   212   ar
   169   211   213   ar
   170   175   174    1
   171    64    65    1
   172    74    72    1
   173   212   214   ar
   174    72    73    1
   175   213   215   ar
   176    65    66    1
   177    61    63   am
   178    61    62    2
   179   105   103   ar
   180   105   106   ar
   181   108   106   ar
   182   108   110   ar
   183   103   102   ar
   184   106   104   ar
   185   214   216   ar
   186   100    99    2
   187   215   216   ar
   188   110   109   ar
   189   174   165   am
   190   102   104   ar
   191   102   101    1
   192   104   107   ar
   193   216   217    1
   194   109   107   ar
   195   166   165    2
   196   101    98    1
   197    98    99    1
   198    98    97    1
   199   173   171    1
   200   165   164    1
   201    66    67    2
   202   172   171    1
   203   171   170    2
   204    97    88   am
   205   167   164    1
   206   167   168    1
   207   170   169    1
   208   164   163    1
   209   169   168    1
   210   163   156   am
   211    88    89    2
   212    88    87    1
   213    90    91    1
   214    90    87    1
   215   154   155    1
   216    91    92    1
   217    87    86    1
   218   156   157    2
   219   156   155    1
   220    92    93    1
   221    93    94    2
   222   155   158    1
   223    75    76    1
   224    84    83    1
   225    76    79    1
   226    76    77    1
   227    94    96    1
   228    94    95    1
   229   158   159    1
   230    83    85    1
   231    83    82    2
   232    80    79    1
   233    80    81    1
   234    81    82    1
   235    77    78    2
   236   159   160    1
   237   161   160   ar
   238   160   162   ar
