@<TRIPOS>MOLECULE
tmp/1ex9A00.pdb
 230 219 0 0 0
SMALL
GASTEIGER

@<TRIPOS>ATOM
      1  N          2.0460    2.2200   46.8570 N.3    16  MET16      -0.1230
      2  CA         1.1310    2.6250   47.9290 C.3    16  MET16       0.1702
      3  C          1.6470    2.0190   49.2590 C.2    16  MET16       0.2592
      4  O          2.1000    0.8650   49.3010 O.2    16  MET16      -0.2718
      5  CB        -0.2720    2.1140   47.5770 C.3    16  MET16       0.0401
      6  CG        -1.1940    2.0020   48.7810 C.3    16  MET16       0.0596
      7  SD        -2.4600    0.7810   48.5520 S.3    16  MET16      -0.1393
      8  CE        -4.0400    1.4930   48.9340 C.3    16  MET16       0.0692
      9  N          1.5700    2.8200   50.3230 N.am   17  LEU17      -0.1980
     10  CA         2.0640    2.4340   51.6730 C.3    17  LEU17       0.1596
     11  C          3.5470    2.0610   51.5890 C.2    17  LEU17       0.2287
     12  O          4.0430    1.2170   52.3460 O.2    17  LEU17      -0.2864
     13  CB         1.3310    1.1930   52.2060 C.3    17  LEU17       0.0297
     14  CG        -0.1380    1.4320   52.5630 C.3    17  LEU17       0.0022
     15  CD1       -0.8650    0.1490   52.9880 C.3    17  LEU17       0.0001
     16  CD2       -0.3290    2.4130   53.7200 C.3    17  LEU17       0.0001
     17  N          7.8250    3.2220   50.9490 N.3    19  PHE19      -0.1241
     18  CA         8.8580    4.0670   51.5550 C.3    19  PHE19       0.1605
     19  C         10.1760    3.8570   50.8080 C.2    19  PHE19       0.2264
     20  O         10.2360    3.0610   49.8730 O.2    19  PHE19      -0.2867
     21  CB         9.0340    3.7060   53.0570 C.3    19  PHE19       0.0534
     22  CG         9.3210    2.2280   53.3270 C.ar   19  PHE19      -0.0203
     23  CD1        8.2700    1.2950   53.4100 C.ar   19  PHE19      -0.0042
     24  CD2       10.6410    1.7750   53.5220 C.ar   19  PHE19      -0.0042
     25  CE1        8.5260   -0.0750   53.6810 C.ar   19  PHE19      -0.0003
     26  CE2       10.9220    0.4120   53.7950 C.ar   19  PHE19      -0.0003
     27  CZ         9.8600   -0.5200   53.8760 C.ar   19  PHE19      -0.0000
     28  N         16.2090   -1.0800   56.8040 N.3    25  VAL25      -0.1245
     29  CA        15.4150   -1.9690   55.9290 C.3    25  VAL25       0.1561
     30  C         14.9050   -1.2180   54.6880 C.2    25  VAL25       0.2260
     31  O         14.1430   -0.2480   54.7920 O.2    25  VAL25      -0.2867
     32  CB        14.2100   -2.5260   56.6890 C.3    25  VAL25       0.0252
     33  CG1       13.3680   -3.4870   55.8460 C.3    25  VAL25       0.0019
     34  CG2       14.6100   -3.3090   57.9410 C.3    25  VAL25       0.0019
     35  N         12.9080   -0.8840   51.0150 N.3    27  TYR27      -0.1241
     36  CA        11.6250   -1.2710   50.3880 C.3    27  TYR27       0.1605
     37  C         11.9750   -2.2120   49.2390 C.2    27  TYR27       0.2264
     38  O         11.3250   -3.2450   49.0330 O.2    27  TYR27      -0.2867
     39  CB        10.8970   -0.0040   49.8990 C.3    27  TYR27       0.0534
     40  CG         9.6250   -0.2550   49.0570 C.ar   27  TYR27      -0.0201
     41  CD1        9.7180   -0.4180   47.6670 C.ar   27  TYR27      -0.0009
     42  CD2        8.3580   -0.3050   49.6690 C.ar   27  TYR27      -0.0009
     43  CE1        8.5620   -0.6140   46.8940 C.ar   27  TYR27       0.0417
     44  CE2        7.2020   -0.4950   48.8940 C.ar   27  TYR27       0.0417
     45  CZ         7.3040   -0.6460   47.5060 C.ar   27  TYR27       0.1957
     46  OH         6.1840   -0.8130   46.7480 O.3    27  TYR27      -0.2866
     47  N          7.2640    0.5710   41.1200 N.3    81  HIS81      -0.1226
     48  CA         6.5550   -0.6350   41.5650 C.3    81  HIS81       0.1752
     49  C          5.1540   -0.2530   42.0580 C.2    81  HIS81       0.2597
     50  O          4.9890    0.7200   42.8100 O.2    81  HIS81      -0.2718
     51  CB         7.3180   -1.3220   42.7030 C.3    81  HIS81       0.0759
     52  CG         6.5780   -2.5410   43.2700 C.ar   81  HIS81       0.0818
     53  ND1        6.1070   -2.5740   44.5790 N.ar   81  HIS81      -0.2268
     54  CD2        6.2370   -3.7380   42.7180 C.ar   81  HIS81       0.1154
     55  CE1        5.5180   -3.7400   44.7790 C.ar   81  HIS81       0.1986
     56  NE2        5.5860   -4.4460   43.6790 N.ar   81  HIS81      -0.2212
     57  N          4.1960   -1.0420   41.5990 N.am   82  SER82      -0.1938
     58  CA         2.7640   -0.9030   41.9460 C.3    82  SER82       0.2055
     59  C          2.2340    0.4930   41.5800 C.2    82  SER82       0.2643
     60  O          2.1070    0.8450   40.4020 O.2    82  SER82      -0.2714
     61  CB         2.5600   -1.1500   43.4370 C.3    82  SER82       0.2130
     62  OG         1.1980   -1.4620   43.6910 O.3    82  SER82      -0.2179
     63  N          1.9100    1.2890   42.5980 N.am   83  HIS83      -0.1973
     64  CA         1.3980    2.6570   42.3640 C.3    83  HIS83       0.1656
     65  C          2.5200    3.5140   41.7660 C.2    83  HIS83       0.2291
     66  O          2.2770    4.5910   41.2020 O.2    83  HIS83      -0.2864
     67  CB         0.8800    3.2920   43.6630 C.3    83  HIS83       0.0771
     68  CG        -0.1160    4.4410   43.4170 C.ar   83  HIS83       0.0820
     69  ND1       -0.6750    5.1740   44.4630 N.ar   83  HIS83      -0.2267
     70  CD2       -0.6370    4.9710   42.2730 C.ar   83  HIS83       0.1154
     71  CE1       -1.4820    6.0870   43.9470 C.ar   83  HIS83       0.1986
     72  NE2       -1.4700    5.9790   42.6440 N.ar   83  HIS83      -0.2212
     73  N         -0.8480   -1.6170   38.5360 N.2   108  PRO108     -0.2584
     74  CA        -2.2510   -1.6010   38.1390 C.3   108  PRO108      0.1895
     75  C         -2.5680   -0.4080   37.2760 C.2   108  PRO108      0.2359
     76  O         -3.2270    0.5520   37.7690 O.2   108  PRO108     -0.2858
     77  CB        -3.0030   -1.3560   39.4260 C.2   108  PRO108      0.0071
     78  CG        -1.9810   -1.1450   40.5280 C.2   108  PRO108      0.0180
     79  CD        -0.6100   -1.3010   39.9490 C.2   108  PRO108      0.0937
     80  N         -6.8850   -2.3850   39.8270 N.3   112  SER112     -0.1217
     81  CA        -6.7010   -3.5510   40.6770 C.3   112  SER112      0.1889
     82  C         -8.0990   -4.0410   41.0390 C.2   112  SER112      0.2288
     83  O         -8.9660   -3.2320   41.4000 O.2   112  SER112     -0.2866
     84  CB        -5.9550   -3.1370   41.9460 C.3   112  SER112      0.2089
     85  OG        -5.9700   -4.1440   42.9490 O.3   112  SER112     -0.2183
     86  N         -8.7950   -5.7410   43.5740 N.3   114  THR114     -0.1203
     87  CA        -8.8580   -5.6270   45.0330 C.3   114  THR114      0.1994
     88  C         -9.3610   -4.2420   45.4060 C.2   114  THR114      0.2617
     89  O        -10.1140   -4.0890   46.3720 O.2   114  THR114     -0.2717
     90  CB        -7.4850   -5.8470   45.6960 C.3   114  THR114      0.1784
     91  OG1       -6.7800   -6.8690   44.9870 O.3   114  THR114     -0.2211
     92  CG2       -7.6620   -6.2930   47.1580 C.3   114  THR114      0.0376
     93  N         -8.9410   -3.2460   44.6230 N.am  115  ALA115     -0.1979
     94  CA        -9.3560   -1.8640   44.8220 C.3   115  ALA115      0.1597
     95  C        -10.8140   -1.7280   44.3760 C.2   115  ALA115      0.2287
     96  O        -11.5990   -1.0480   45.0500 O.2   115  ALA115     -0.2864
     97  CB        -8.4620   -0.9330   44.0530 C.3   115  ALA115      0.0319
     98  N        -13.1370   -3.0600   47.0130 N.3   118  LEU118     -0.1245
     99  CA       -13.3580   -2.0820   48.0890 C.3   118  LEU118      0.1561
    100  C        -14.4110   -1.0050   47.7710 C.2   118  LEU118      0.2260
    101  O        -14.8490   -0.2900   48.6790 O.2   118  LEU118     -0.2867
    102  CB       -12.0290   -1.4450   48.5280 C.3   118  LEU118      0.0270
    103  CG       -11.0090   -2.4160   49.1520 C.3   118  LEU118      0.0019
    104  CD1       -9.6180   -1.7900   49.2110 C.3   118  LEU118      0.0001
    105  CD2      -11.4650   -2.8610   50.5340 C.3   118  LEU118      0.0001
    106  N         -8.0170    4.3390   59.0890 N.3   134  LEU134     -0.1231
    107  CA        -7.0970    3.2770   59.4920 C.3   134  LEU134      0.1693
    108  C         -5.9070    3.1200   58.5540 C.2   134  LEU134      0.2591
    109  O         -4.7790    2.9280   59.0190 O.2   134  LEU134     -0.2718
    110  CB        -7.8450    1.9550   59.5870 C.3   134  LEU134      0.0284
    111  CG        -7.5420    1.0360   60.7660 C.3   134  LEU134      0.0019
    112  CD1       -8.8410    0.3000   61.1170 C.3   134  LEU134      0.0001
    113  CD2       -6.3850    0.0600   60.4390 C.3   134  LEU134      0.0001
    114  N         -6.1650    3.1570   57.2450 N.am  135  VAL135     -0.1980
    115  CA        -5.1010    3.0460   56.2430 C.3   135  VAL135      0.1595
    116  C         -4.2520    4.3320   56.2880 C.2   135  VAL135      0.2287
    117  O         -3.0300    4.2760   56.1370 O.2   135  VAL135     -0.2864
    118  CB        -5.6710    2.7680   54.8200 C.3   135  VAL135      0.0276
    119  CG1       -4.5510    2.6600   53.7880 C.3   135  VAL135      0.0022
    120  CG2       -6.4540    1.4630   54.8220 C.3   135  VAL135      0.0022
    121  N         -1.8060    3.9830   59.0830 N.3   138  LEU138     -0.1245
    122  CA        -0.7170    3.0870   58.6970 C.3   138  LEU138      0.1561
    123  C          0.2910    3.8250   57.8000 C.2   138  LEU138      0.2260
    124  O          1.5040    3.7250   58.0120 O.2   138  LEU138     -0.2867
    125  CB        -1.2910    1.8320   58.0150 C.3   138  LEU138      0.0270
    126  CG        -0.4350    0.6390   57.5450 C.3   138  LEU138      0.0019
    127  CD1        0.5890    0.1630   58.5960 C.3   138  LEU138      0.0001
    128  CD2       -1.3770   -0.4900   57.1630 C.3   138  LEU138      0.0001
    129  N          4.1920    4.7550   58.5820 N.3   142  ILE142     -0.1245
    130  CA         5.2520    4.4090   57.6310 C.3   142  ILE142      0.1561
    131  C          6.0710    5.6520   57.2790 C.2   142  ILE142      0.2260
    132  O          7.2980    5.5900   57.2140 O.2   142  ILE142     -0.2867
    133  CB         4.6630    3.7040   56.3490 C.3   142  ILE142      0.0252
    134  CG1        4.0570    2.3480   56.7440 C.3   142  ILE142      0.0019
    135  CG2        5.7540    3.4650   55.2940 C.3   142  ILE142      0.0019
    136  CD1        3.1180    1.7370   55.7100 C.3   142  ILE142      0.0001
    137  N         -6.9300    4.7850   46.5300 N.3   159  LEU159     -0.1245
    138  CA        -7.9270    3.8260   46.0710 C.3   159  LEU159      0.1561
    139  C         -8.6590    4.2440   44.7930 C.2   159  LEU159      0.2260
    140  O         -8.9790    3.3930   43.9690 O.2   159  LEU159     -0.2867
    141  CB        -8.9230    3.4940   47.1960 C.3   159  LEU159      0.0270
    142  CG        -8.6330    2.3400   48.1820 C.3   159  LEU159      0.0019
    143  CD1       -8.2180    1.1040   47.4060 C.3   159  LEU159      0.0001
    144  CD2       -7.5690    2.6850   49.1980 C.3   159  LEU159      0.0001
    145  N         -6.1980    3.6990   41.9930 N.3   162  LEU162     -0.1245
    146  CA        -5.9340    2.2740   41.8490 C.3   162  LEU162      0.1561
    147  C         -7.0990    1.3990   41.4000 C.2   162  LEU162      0.2260
    148  O         -6.9060    0.2010   41.1800 O.2   162  LEU162     -0.2867
    149  CB        -5.3260    1.7210   43.1390 C.3   162  LEU162      0.0270
    150  CG        -3.9980    2.3550   43.5620 C.3   162  LEU162      0.0019
    151  CD1       -3.6330    1.9330   44.9670 C.3   162  LEU162      0.0001
    152  CD2       -2.9100    2.0260   42.5640 C.3   162  LEU162      0.0001
    153  N         -1.7180  -12.8920   53.2370 N.3   214  PHE214     -0.1241
    154  CA        -2.4720  -11.7050   52.8260 C.3   214  PHE214      0.1605
    155  C         -2.6950  -11.7270   51.3130 C.2   214  PHE214      0.2264
    156  O         -3.8240  -11.5640   50.8510 O.2   214  PHE214     -0.2867
    157  CB        -1.7390  -10.4040   53.2540 C.3   214  PHE214      0.0534
    158  CG        -2.4490   -9.1160   52.8370 C.ar  214  PHE214     -0.0203
    159  CD1       -3.5990   -8.6710   53.5230 C.ar  214  PHE214     -0.0042
    160  CD2       -2.0000   -8.3710   51.7190 C.ar  214  PHE214     -0.0042
    161  CE1       -4.3120   -7.5000   53.1020 C.ar  214  PHE214     -0.0003
    162  CE2       -2.6980   -7.1990   51.2830 C.ar  214  PHE214     -0.0003
    163  CZ        -3.8600   -6.7660   51.9790 C.ar  214  PHE214     -0.0000
    164  N         -2.5310   -8.8000   44.0650 N.3   231  LEU231     -0.1231
    165  CA        -3.1420   -7.4650   44.1330 C.3   231  LEU231      0.1693
    166  C         -3.3190   -6.8360   42.7460 C.2   231  LEU231      0.2591
    167  O         -4.2050   -5.9940   42.5340 O.2   231  LEU231     -0.2718
    168  CB        -2.2590   -6.5190   44.9510 C.3   231  LEU231      0.0284
    169  CG        -2.1670   -6.9030   46.4290 C.3   231  LEU231      0.0019
    170  CD1       -1.1710   -6.0410   47.2100 C.3   231  LEU231      0.0001
    171  CD2       -3.4990   -6.7680   47.1680 C.3   231  LEU231      0.0001
    172  N         -2.4790   -7.2480   41.8110 N.am  232  VAL232     -0.1980
    173  CA        -2.5060   -6.6750   40.4540 C.3   232  VAL232      0.1595
    174  C         -2.6050   -7.7410   39.3630 C.2   232  VAL232      0.2287
    175  O         -1.8290   -8.6950   39.3430 O.2   232  VAL232     -0.2864
    176  CB        -1.2300   -5.8720   40.1950 C.3   232  VAL232      0.0276
    177  CG1       -1.1570   -5.3100   38.7730 C.3   232  VAL232      0.0022
    178  CG2       -1.0830   -4.6660   41.1250 C.3   232  VAL232      0.0022
    179  N          3.0040   -9.9710   44.5880 N.3   251  HIS251     -0.1226
    180  CA         3.1690   -8.5290   44.6660 C.3   251  HIS251      0.1752
    181  C          4.4060   -8.0680   45.4120 C.2   251  HIS251      0.2595
    182  O          5.0760   -7.1370   44.9580 O.2   251  HIS251     -0.2718
    183  CB         1.9300   -7.8760   45.2550 C.3   251  HIS251      0.0759
    184  CG         1.7760   -6.4450   44.8600 C.ar  251  HIS251      0.0818
    185  ND1        1.6470   -6.0550   43.5440 N.ar  251  HIS251     -0.2268
    186  CD2        1.7850   -5.3070   45.5930 C.ar  251  HIS251      0.1154
    187  CE1        1.5860   -4.7390   43.4870 C.ar  251  HIS251      0.1986
    188  NE2        1.6670   -4.2600   44.7140 N.ar  251  HIS251     -0.2212
    189  N          4.7280   -8.7480   46.5160 N.am  252  LEU252     -0.1980
    190  CA         5.8990   -8.3990   47.3220 C.3   252  LEU252      0.1596
    191  C          7.2210   -8.9810   46.8360 C.2   252  LEU252      0.2287
    192  O          8.2740   -8.3620   47.0310 O.2   252  LEU252     -0.2864
    193  CB         5.6810   -8.7030   48.8120 C.3   252  LEU252      0.0297
    194  CG         4.7660   -7.7840   49.6470 C.3   252  LEU252      0.0022
    195  CD1        5.3220   -7.7100   51.0590 C.3   252  LEU252      0.0001
    196  CD2        4.6800   -6.3570   49.0860 C.3   252  LEU252      0.0001
    197  N          9.5160   -6.8880   44.6460 N.3   255  VAL255     -0.1245
    198  CA        10.4670   -5.9920   45.3020 C.3   255  VAL255      0.1561
    199  C         11.3330   -6.7590   46.3310 C.2   255  VAL255      0.2260
    200  O         11.8770   -6.1650   47.2740 O.2   255  VAL255     -0.2867
    201  CB         9.7970   -4.7500   45.9810 C.3   255  VAL255      0.0252
    202  CG1        9.4610   -3.6420   44.9830 C.3   255  VAL255      0.0019
    203  CG2        8.4870   -5.0950   46.6920 C.3   255  VAL255      0.0019
    204  N         10.5840   -8.9130   48.6510 N.3   257  GLN257     -0.1231
    205  CA        10.0370   -8.8590   50.0240 C.3   257  GLN257      0.1698
    206  C          9.1860  -10.1270   50.3120 C.2   257  GLN257      0.2592
    207  O          8.6950  -10.7410   49.3640 O.2   257  GLN257     -0.2718
    208  CB         9.1940   -7.5950   50.2180 C.3   257  GLN257      0.0381
    209  CG        10.0320   -6.3060   50.2080 C.3   257  GLN257      0.0905
    210  CD        10.8090   -6.0590   51.5120 C.2   257  GLN257      0.2608
    211  OE1       10.8310   -6.9170   52.3940 O.2   257  GLN257     -0.2717
    212  NE2       11.4590   -4.9200   51.6900 N.am  257  GLN257     -0.0878
    213  N          9.0550  -10.5900   51.5690 N.am  258  VAL258     -0.1966
    214  CA         9.6490  -10.0350   52.7920 C.3   258  VAL258      0.1727
    215  C         11.0140  -10.6720   53.0530 C.2   258  VAL258      0.2616
    216  O         11.1500  -11.8960   53.0360 O.2   258  VAL258     -0.2715
    217  CB         8.6910  -10.2050   54.0160 C.3   258  VAL258      0.0290
    218  CG1        9.2640   -9.5420   55.2840 C.3   258  VAL258      0.0023
    219  CG2        7.3290   -9.6040   53.6970 C.3   258  VAL258      0.0023
    220  N         12.0200   -9.8010   53.1740 N.am  259  PHE259     -0.1974
    221  CA        13.4260  -10.1420   53.4260 C.3   259  PHE259      0.1639
    222  C         14.0770  -11.1680   52.4990 C.2   259  PHE259      0.2290
    223  O         14.9270  -11.9600   52.9180 O.2   259  PHE259     -0.2864
    224  CB        13.6740  -10.4930   54.9060 C.3   259  PHE259      0.0560
    225  CG        13.2710   -9.4110   55.8680 C.ar  259  PHE259     -0.0200
    226  CD1       13.6130   -8.0680   55.6370 C.ar  259  PHE259     -0.0042
    227  CD2       12.5150   -9.7290   57.0020 C.ar  259  PHE259     -0.0042
    228  CE1       13.2000   -7.0420   56.5290 C.ar  259  PHE259     -0.0003
    229  CE2       12.0860   -8.7100   57.9110 C.ar  259  PHE259     -0.0003
    230  CZ        12.4330   -7.3600   57.6710 C.ar  259  PHE259     -0.0000
@<TRIPOS>BOND
     1    75    76    2
     2    75    74    1
     3    74    73    1
     4    74    77    1
     5    73    79    2
     6   177   176    1
     7   175   174    2
     8   174   173    1
     9    77    78    2
    10    80    81    1
    11    79    78    1
    12   176   173    1
    13   176   178    1
    14    60    59    2
    15   173   172    1
    16    81    82    1
    17    81    84    1
    18    82    83    2
    19    47    48    1
    20   148   147    2
    21    66    65    2
    22   147   146    1
    23    48    49    1
    24    48    51    1
    25    59    58    1
    26    59    63   am
    27    57    58    1
    28    57    49   am
    29    65    64    1
    30   172   166   am
    31   146   145    1
    32   146   149    1
    33    84    85    1
    34    58    61    1
    35    49    50    2
    36    70    72   ar
    37    70    68   ar
    38    64    63    1
    39    64    67    1
    40   167   166    2
    41   152   150    1
    42    72    71   ar
    43    51    52    1
    44    54    52   ar
    45    54    56   ar
    46   166   165    1
    47   149   150    1
    48    52    53   ar
    49    68    67    1
    50    68    69   ar
    51    61    62    1
    52   187   185   ar
    53   187   188   ar
    54   185   184   ar
    55   150   151    1
    56    86    87    1
    57    56    55   ar
    58    71    69   ar
    59   140   139    2
    60    97    94    1
    61   164   165    1
    62   165   168    1
    63    95    94    1
    64    95    96    2
    65    53    55   ar
    66   179   180    1
    67    93    94    1
    68    93    88   am
    69   197   198    1
    70   180   183    1
    71   180   181    1
    72   188   186   ar
    73   139   138    1
    74   184   183    1
    75   184   186   ar
    76   168   169    1
    77   182   181    2
    78   202   201    1
    79    91    90    1
    80    87    88    1
    81    87    90    1
    82   198   201    1
    83   198   199    1
    84    88    89    2
    85   181   189   am
    86    90    92    1
    87   201   203    1
    88   138   137    1
    89   138   141    1
    90   199   200    2
    91   169   171    1
    92   169   170    1
    93   189   190    1
    94    46    45    1
    95   191   192    2
    96   191   190    1
    97     1     2    1
    98    43    45   ar
    99    43    41   ar
   100    98    99    1
   101   141   142    1
   102   190   193    1
   103   143   142    1
   104    45    44   ar
   105     5     2    1
   106     5     6    1
   107    41    40   ar
   108   100    99    1
   109   100   101    2
   110     2     3    1
   111    99   102    1
   112   142   144    1
   113   102   103    1
   114     7     6    1
   115     7     8    1
   116   204   205    1
   117   193   194    1
   118    44    42   ar
   119    38    37    2
   120    40    42   ar
   121    40    39    1
   122   196   194    1
   123   103   104    1
   124   103   105    1
   125    37    36    1
   126     3     4    2
   127     3     9   am
   128   207   206    2
   129   194   195    1
   130    20    19    2
   131    39    36    1
   132   205   208    1
   133   205   206    1
   134   209   208    1
   135   209   210    1
   136   206   213   am
   137     9    10    1
   138    36    35    1
   139    19    18    1
   140   156   155    2
   141    17    18    1
   142   162   160   ar
   143   162   163   ar
   144   155   154    1
   145   210   212   am
   146   210   211    2
   147    18    21    1
   148   213   214    1
   149    11    10    1
   150    11    12    2
   151    10    13    1
   152   160   158   ar
   153   163   161   ar
   154    13    14    1
   155   222   223    2
   156   222   221    1
   157    14    15    1
   158    14    16    1
   159   214   215    1
   160   214   217    1
   161   154   153    1
   162   154   157    1
   163   158   157    1
   164   158   159   ar
   165   216   215    2
   166   215   220   am
   167    21    22    1
   168   161   159   ar
   169   220   221    1
   170    22    23   ar
   171    22    24   ar
   172    23    25   ar
   173   221   224    1
   174    24    26   ar
   175    25    27   ar
   176   219   217    1
   177   119   118    1
   178    26    27   ar
   179   217   218    1
   180    30    31    2
   181    30    29    1
   182   118   120    1
   183   118   115    1
   184   224   225    1
   185   135   133    1
   186   226   225   ar
   187   226   228   ar
   188   136   134    1
   189    33    32    1
   190   225   227   ar
   191    29    32    1
   192    29    28    1
   193   117   116    2
   194   115   116    1
   195   115   114    1
   196   133   134    1
   197   133   130    1
   198   228   230   ar
   199    32    34    1
   200   227   229   ar
   201   128   126    1
   202   132   131    2
   203   114   108   am
   204   131   130    1
   205   126   125    1
   206   126   127    1
   207   130   129    1
   208   230   229   ar
   209   123   124    2
   210   123   122    1
   211   125   122    1
   212   108   109    2
   213   108   107    1
   214   122   121    1
   215   106   107    1
   216   107   110    1
   217   110   111    1
   218   113   111    1
   219   111   112    1
