@<TRIPOS>MOLECULE
tmp/1exaA00.pdb
 209 197 0 0 0
SMALL
GASTEIGER

@<TRIPOS>ATOM
      1  N         32.6950   18.0540   96.6650 N.3    20  PHE20      -0.1241
      2  CA        32.2270   17.3530   95.4850 C.3    20  PHE20       0.1605
      3  C         30.7070   17.1880   95.4240 C.2    20  PHE20       0.2264
      4  O         30.1390   16.2380   95.9600 O.2    20  PHE20      -0.2867
      5  CB        32.8920   15.9740   95.3960 C.3    20  PHE20       0.0534
      6  CG        32.8100   15.3750   94.0290 C.ar   20  PHE20      -0.0203
      7  CD1       32.1110   14.2030   93.8130 C.ar   20  PHE20      -0.0042
      8  CD2       33.4220   16.0000   92.9550 C.ar   20  PHE20      -0.0042
      9  CE1       32.0250   13.6580   92.5300 C.ar   20  PHE20      -0.0003
     10  CE2       33.3330   15.4530   91.6710 C.ar   20  PHE20      -0.0003
     11  CZ        32.6210   14.2760   91.4870 C.ar   20  PHE20      -0.0000
     12  N         38.4570   21.5570   75.1990 N.3    46  TRP46      -0.1241
     13  CA        39.6610   21.3630   75.9900 C.3    46  TRP46       0.1605
     14  C         39.8250   22.5290   76.9480 C.2    46  TRP46       0.2264
     15  O         40.1750   22.3330   78.1010 O.2    46  TRP46      -0.2867
     16  CB        40.9130   21.2520   75.0980 C.3    46  TRP46       0.0550
     17  CG        42.1960   21.4660   75.8350 C.ar   46  TRP46       0.0003
     18  CD1       43.0120   22.5590   75.7330 C.ar   46  TRP46       0.0946
     19  CD2       42.7590   20.6460   76.8860 C.ar   46  TRP46       0.0152
     20  NE1       44.0370   22.4840   76.6600 N.ar   46  TRP46      -0.2442
     21  CE2       43.9020   21.3230   77.3720 C.ar   46  TRP46       0.0810
     22  CE3       42.3980   19.4130   77.4630 C.ar   46  TRP46       0.0012
     23  CZ2       44.6890   20.8110   78.4120 C.ar   46  TRP46       0.0191
     24  CZ3       43.1860   18.9160   78.4970 C.ar   46  TRP46       0.0001
     25  CH2       44.3210   19.6170   78.9600 C.ar   46  TRP46       0.0015
     26  N         37.1850   22.0880   79.7110 N.3    49  PHE49      -0.1241
     27  CA        37.5090   20.8950   80.4940 C.3    49  PHE49       0.1605
     28  C         38.7280   21.0910   81.3920 C.2    49  PHE49       0.2264
     29  O         38.6770   20.7830   82.5980 O.2    49  PHE49      -0.2867
     30  CB        37.7650   19.7060   79.5460 C.3    49  PHE49       0.0534
     31  CG        38.4340   18.5210   80.2230 C.ar   49  PHE49      -0.0203
     32  CD1       37.7470   17.7750   81.1510 C.ar   49  PHE49      -0.0042
     33  CD2       39.7850   18.2240   79.9580 C.ar   49  PHE49      -0.0042
     34  CE1       38.3910   16.7350   81.8260 C.ar   49  PHE49      -0.0003
     35  CE2       40.4480   17.1850   80.6340 C.ar   49  PHE49      -0.0003
     36  CZ        39.7160   16.4400   81.5820 C.ar   49  PHE49      -0.0000
     37  N         37.9880   23.1080   84.3750 N.3    52  LEU52      -0.1231
     38  CA        37.2120   22.3300   85.3530 C.3    52  LEU52       0.1693
     39  C         38.1200   21.3360   86.0730 C.2    52  LEU52       0.2591
     40  O         37.9710   21.1260   87.2680 O.2    52  LEU52      -0.2718
     41  CB        36.0590   21.5870   84.6610 C.3    52  LEU52       0.0284
     42  CG        34.9170   22.5250   84.2250 C.3    52  LEU52       0.0019
     43  CD1       33.8900   21.8360   83.2810 C.3    52  LEU52       0.0001
     44  CD2       34.2300   23.0330   85.4570 C.3    52  LEU52       0.0001
     45  N         39.0650   20.7450   85.3510 N.am   53  ALA53      -0.1980
     46  CA        39.9770   19.7880   85.9730 C.3    53  ALA53       0.1597
     47  C         40.8310   20.4990   87.0050 C.2    53  ALA53       0.2287
     48  O         41.0020   20.0050   88.0940 O.2    53  ALA53      -0.2864
     49  CB        40.8620   19.1050   84.8810 C.3    53  ALA53       0.0319
     50  N         38.8740   21.0830   90.1180 N.3    56  CYS56      -0.1235
     51  CA        38.6990   19.8820   90.9100 C.3    56  CYS56       0.1677
     52  C         39.9970   19.4920   91.6440 C.2    56  CYS56       0.2270
     53  O         39.9440   18.9730   92.7560 O.2    56  CYS56      -0.2867
     54  CB        38.1930   18.7580   90.0090 C.3    56  CYS56       0.0956
     55  SG        37.5420   17.3250   90.9630 S.3    56  CYS56      -0.0801
     56  N         45.2470   12.1040   90.2280 N.3    87  LEU87      -0.1245
     57  CA        44.5940   11.6370   89.0210 C.3    87  LEU87       0.1561
     58  C         43.6710   10.4340   89.3040 C.2    87  LEU87       0.2260
     59  O         42.6260   10.3020   88.6690 O.2    87  LEU87      -0.2867
     60  CB        45.6200   11.3540   87.9250 C.3    87  LEU87       0.0270
     61  CG        45.0330   11.0750   86.5270 C.3    87  LEU87       0.0019
     62  CD1       44.0630   12.1870   86.1110 C.3    87  LEU87       0.0001
     63  CD2       46.1960   11.0190   85.5240 C.3    87  LEU87       0.0001
     64  N         40.6090   12.0940   90.6180 N.3    90  LEU90      -0.1231
     65  CA        39.9280   12.7900   89.5240 C.3    90  LEU90       0.1693
     66  C         39.1510   11.7610   88.7080 C.2    90  LEU90       0.2591
     67  O         38.0070   11.9850   88.3320 O.2    90  LEU90      -0.2718
     68  CB        40.9490   13.4650   88.6170 C.3    90  LEU90       0.0284
     69  CG        41.4320   14.8330   89.1130 C.3    90  LEU90       0.0019
     70  CD1       42.5770   15.3020   88.2600 C.3    90  LEU90       0.0001
     71  CD2       40.2750   15.8550   89.0530 C.3    90  LEU90       0.0001
     72  N         39.7760   10.6090   88.4430 N.am   91  MET91      -0.1979
     73  CA        39.0670    9.5810   87.6610 C.3    91  MET91       0.1605
     74  C         37.8560    9.0160   88.3990 C.2    91  MET91       0.2287
     75  O         36.8000    8.8340   87.8240 O.2    91  MET91      -0.2864
     76  CB        40.0080    8.4240   87.3120 C.3    91  MET91       0.0413
     77  CG        41.1070    8.8150   86.3110 C.3    91  MET91       0.0598
     78  SD        40.3900    9.1800   84.6720 S.3    91  MET91      -0.1393
     79  CE        41.8680    9.3550   83.7470 C.3    91  MET91       0.0692
     80  N         36.1250   10.4990   90.6380 N.3    93  ARG93      -0.1231
     81  CA        35.1090   11.5550   90.7090 C.3    93  ARG93       0.1694
     82  C         34.3340   11.6980   89.4050 C.2    93  ARG93       0.2591
     83  O         33.0990   11.7090   89.4410 O.2    93  ARG93      -0.2718
     84  CB        35.7610   12.9030   91.1130 C.3    93  ARG93       0.0321
     85  CG        35.9710   13.0670   92.6090 C.3    93  ARG93       0.0489
     86  CD        36.6410   14.3880   92.9690 C.3    93  ARG93       0.2205
     87  NE        36.6750   14.5150   94.4320 N.pl3  93  ARG93      -0.0865
     88  CZ        36.5800   15.6760   95.0750 C.cat  93  ARG93       0.5346
     89  NH1       36.4720   16.7990   94.3860 N.pl3  93  ARG93       0.1354
     90  NH2       36.5000   15.6810   96.3960 N.pl3  93  ARG93       0.1354
     91  N         35.0100   11.7830   88.2480 N.am   94  ILE94      -0.1980
     92  CA        34.2270   11.9510   87.0320 C.3    94  ILE94       0.1595
     93  C         33.3690   10.7120   86.7590 C.2    94  ILE94       0.2287
     94  O         32.2410   10.8220   86.2790 O.2    94  ILE94      -0.2864
     95  CB        35.1230   12.3060   85.8120 C.3    94  ILE94       0.0276
     96  CG1       34.2430   12.8850   84.6710 C.3    94  ILE94       0.0022
     97  CG2       35.8860   11.0850   85.3150 C.3    94  ILE94       0.0022
     98  CD1       33.5800   14.1990   85.0870 C.3    94  ILE94       0.0001
     99  N         29.9650   10.5930   88.2240 N.3    97  ARG97      -0.1245
    100  CA        29.0380   11.5710   87.6430 C.3    97  ARG97       0.1563
    101  C         28.5230   11.0560   86.2860 C.2    97  ARG97       0.2260
    102  O         28.1220   11.8410   85.4000 O.2    97  ARG97      -0.2867
    103  CB        29.7830   12.8970   87.4450 C.3    97  ARG97       0.0307
    104  CG        30.1490   13.6640   88.7340 C.3    97  ARG97       0.0489
    105  CD        29.0150   14.5600   89.2130 C.3    97  ARG97       0.2205
    106  NE        29.4370   15.4080   90.3370 N.pl3  97  ARG97      -0.0865
    107  CZ        30.3360   16.3790   90.2550 C.cat  97  ARG97       0.5346
    108  NH1       30.9270   16.6550   89.1040 N.pl3  97  ARG97       0.1354
    109  NH2       30.6470   17.0730   91.3380 N.pl3  97  ARG97       0.1354
    110  N         30.3110   17.6150   85.1140 N.3   107  PHE107     -0.1227
    111  CA        31.3350   18.3200   85.8790 C.3   107  PHE107      0.1736
    112  C         30.7360   19.1340   87.0070 C.2   107  PHE107      0.2596
    113  O         29.5170   19.2510   87.1010 O.2   107  PHE107     -0.2718
    114  CB        32.1740   19.1600   84.9360 C.3   107  PHE107      0.0547
    115  CG        32.9110   18.3290   83.9250 C.ar  107  PHE107     -0.0202
    116  CD1       32.3420   18.0170   82.6970 C.ar  107  PHE107     -0.0042
    117  CD2       34.1520   17.8170   84.2430 C.ar  107  PHE107     -0.0042
    118  CE1       33.0360   17.1710   81.7850 C.ar  107  PHE107     -0.0003
    119  CE2       34.8450   16.9900   83.3600 C.ar  107  PHE107     -0.0003
    120  CZ        34.2850   16.6670   82.1260 C.ar  107  PHE107     -0.0000
    121  N         31.5820   19.6880   87.8650 N.am  108  SER108     -0.1952
    122  CA        31.0720   20.3570   89.0580 C.3   108  SER108      0.1924
    123  C         30.3190   21.6560   88.8890 C.2   108  SER108      0.2314
    124  O         29.7030   22.1160   89.8540 O.2   108  SER108     -0.2863
    125  CB        32.1790   20.5220   90.0890 C.3   108  SER108      0.2116
    126  OG        32.5450   19.2280   90.6010 O.3   108  SER108     -0.2180
    127  N         39.4790   15.9690   75.1120 N.3   122  GLY122     -0.1210
    128  CA        40.8300   15.5420   75.4260 C.3   122  GLY122      0.1956
    129  C         40.9820   14.0890   75.8000 C.2   122  GLY122      0.2611
    130  O         42.1080   13.5680   75.8130 O.2   122  GLY122     -0.2717
    131  N         39.8820   13.4210   76.1420 N.am  123  PHE123     -0.1976
    132  CA        39.9990   12.0220   76.5170 C.3   123  PHE123      0.1639
    133  C         40.5210   11.1810   75.3670 C.2   123  PHE123      0.2290
    134  O         41.2290   10.1910   75.5960 O.2   123  PHE123     -0.2864
    135  CB        38.6740   11.4840   77.0480 C.3   123  PHE123      0.0560
    136  CG        38.3750   11.9360   78.4530 C.ar  123  PHE123     -0.0200
    137  CD1       38.0460   13.2590   78.7050 C.ar  123  PHE123     -0.0042
    138  CD2       38.4580   11.0470   79.5130 C.ar  123  PHE123     -0.0042
    139  CE1       37.8050   13.7020   80.0360 C.ar  123  PHE123     -0.0003
    140  CE2       38.2180   11.4590   80.8390 C.ar  123  PHE123     -0.0003
    141  CZ        37.8910   12.7990   81.0920 C.ar  123  PHE123     -0.0000
    142  N         41.2810    7.2500   75.1580 N.3   126  LEU126     -0.1245
    143  CA        40.9980    6.6970   76.4670 C.3   126  LEU126      0.1561
    144  C         39.5030    6.7920   76.8120 C.2   126  LEU126      0.2260
    145  O         39.0480    6.2220   77.7960 O.2   126  LEU126     -0.2867
    146  CB        41.8240    7.4680   77.5050 C.3   126  LEU126      0.0270
    147  CG        41.8080    7.0180   78.9580 C.3   126  LEU126      0.0019
    148  CD1       42.3240    5.5740   79.0650 C.3   126  LEU126      0.0001
    149  CD2       42.6620    7.9590   79.7780 C.3   126  LEU126      0.0001
    150  N         45.6700    7.5530   81.8400 N.3   212  GLY212     -0.1225
    151  CA        45.3570    8.9780   81.7370 C.3   212  GLY212      0.1811
    152  C         46.6280    9.8100   81.6470 C.2   212  GLY212      0.2280
    153  O         46.6710   10.8190   80.9510 O.2   212  GLY212     -0.2866
    154  N         47.8770    9.4600   78.2290 N.3   215  ARG215     -0.1231
    155  CA        47.1020   10.2800   77.3140 C.3   215  ARG215      0.1694
    156  C         47.5040   11.7570   77.4310 C.2   215  ARG215      0.2591
    157  O         47.4910   12.4940   76.4430 O.2   215  ARG215     -0.2718
    158  CB        45.6000   10.1130   77.5760 C.3   215  ARG215      0.0321
    159  CG        44.7070   11.1070   76.8050 C.3   215  ARG215      0.0489
    160  CD        44.9490   11.0280   75.3010 C.3   215  ARG215      0.2205
    161  NE        44.1160   11.9910   74.5900 N.pl3 215  ARG215     -0.0865
    162  CZ        44.4390   12.5250   73.4200 C.cat 215  ARG215      0.5346
    163  NH1       45.5880   12.1720   72.8370 N.pl3 215  ARG215      0.1354
    164  NH2       43.6380   13.4150   72.8410 N.pl3 215  ARG215      0.1354
    165  N         47.8450   12.2040   78.6380 N.am  216  ALA216     -0.1980
    166  CA        48.2620   13.5830   78.8220 C.3   216  ALA216      0.1597
    167  C         49.5250   13.8780   77.9950 C.2   216  ALA216      0.2287
    168  O         49.6850   14.9950   77.4880 O.2   216  ALA216     -0.2864
    169  CB        48.5110   13.8710   80.2960 C.3   216  ALA216      0.0319
    170  N         48.3320   14.3180   74.3840 N.3   219  LEU219     -0.1245
    171  CA        47.4940   15.5060   74.3390 C.3   219  LEU219      0.1561
    172  C         48.3410   16.7830   74.3180 C.2   219  LEU219      0.2260
    173  O         47.9940   17.7670   73.6630 O.2   219  LEU219     -0.2867
    174  CB        46.5510   15.4650   75.5540 C.3   219  LEU219      0.0270
    175  CG        45.3900   16.4310   75.7060 C.3   219  LEU219      0.0019
    176  CD1       44.5030   16.3700   74.4740 C.3   219  LEU219      0.0001
    177  CD2       44.6060   16.0620   76.9860 C.3   219  LEU219      0.0001
    178  N         49.8330   22.6580   79.3910 N.3   227  MET227     -0.1245
    179  CA        48.6420   22.3750   80.1750 C.3   227  MET227      0.1570
    180  C         48.6780   23.2900   81.3970 C.2   227  MET227      0.2261
    181  O         49.7340   23.8270   81.7440 O.2   227  MET227     -0.2867
    182  CB        48.6170   20.9080   80.6410 C.3   227  MET227      0.0387
    183  CG        48.1820   19.9530   79.5520 C.3   227  MET227      0.0595
    184  SD        47.9950   18.2920   80.1680 S.3   227  MET227     -0.1393
    185  CE        47.6210   17.4220   78.6370 C.3   227  MET227      0.0692
    186  N         47.7110   21.1140   86.7360 N.3   231  ILE231     -0.1245
    187  CA        47.6590   19.8100   86.0740 C.3   231  ILE231      0.1561
    188  C         49.1020   19.3070   85.8820 C.2   231  ILE231      0.2260
    189  O         49.3840   18.1240   86.1060 O.2   231  ILE231     -0.2867
    190  CB        46.9000   19.9050   84.7330 C.3   231  ILE231      0.0252
    191  CG1       45.3990   20.0850   85.0050 C.3   231  ILE231      0.0019
    192  CG2       47.1320   18.6190   83.9160 C.3   231  ILE231      0.0019
    193  CD1       44.5650   20.3940   83.7690 C.3   231  ILE231      0.0001
    194  N         50.4560   17.7710   89.0250 N.3   234  MET234     -0.1230
    195  CA        49.9280   16.4410   89.2650 C.3   234  MET234      0.1702
    196  C         50.6210   15.4040   88.4060 C.2   234  MET234      0.2592
    197  O         50.9030   14.2900   88.8760 O.2   234  MET234     -0.2718
    198  CB        48.4110   16.4340   88.9940 C.3   234  MET234      0.0401
    199  CG        47.7940   15.0600   88.8640 C.3   234  MET234      0.0596
    200  SD        46.0620   15.2040   88.5480 S.3   234  MET234     -0.1393
    201  CE        46.0650   15.6300   86.7120 C.3   234  MET234      0.0692
    202  N         50.9050   15.7610   87.1520 N.am  235  LEU235     -0.1980
    203  CA        51.5520   14.8430   86.2280 C.3   235  LEU235      0.1596
    204  C         53.0500   14.6150   86.4570 C.2   235  LEU235      0.2287
    205  O         53.6110   13.6560   85.9260 O.2   235  LEU235     -0.2864
    206  CB        51.3040   15.3100   84.7880 C.3   235  LEU235      0.0297
    207  CG        49.8210   15.3850   84.3790 C.3   235  LEU235      0.0022
    208  CD1       49.6950   15.9000   82.9550 C.3   235  LEU235      0.0001
    209  CD2       49.1830   14.0060   84.5020 C.3   235  LEU235      0.0001
@<TRIPOS>BOND
     1   163   162    1
     2   164   162    1
     3   162   161    2
     4   173   172    2
     5   172   171    1
     6   171   170    1
     7   171   174    1
     8   176   175    1
     9   161   160    1
    10    16    17    1
    11    16    13    1
    12   127   128    1
    13   142   143    1
    14    12    13    1
    15   160   159    1
    16   133   134    2
    17   133   132    1
    18   128   129    1
    19   174   175    1
    20   175   177    1
    21    18    17   ar
    22    18    20   ar
    23   129   130    2
    24   129   131   am
    25    17    19   ar
    26    13    14    1
    27   131   132    1
    28   157   156    2
    29   143   144    1
    30   143   146    1
    31   132   135    1
    32    20    21   ar
    33   159   158    1
    34   144   145    2
    35    19    21   ar
    36    19    22   ar
    37    14    15    2
    38   135   136    1
    39   155   156    1
    40   155   158    1
    41   155   154    1
    42    21    23   ar
    43   156   165   am
    44    22    24   ar
    45   168   167    2
    46   146   147    1
    47   167   166    1
    48    23    25   ar
    49   136   137   ar
    50   136   138   ar
    51    24    25   ar
    52   185   184    1
    53   165   166    1
    54   137   139   ar
    55   166   169    1
    56   147   148    1
    57   147   149    1
    58   178   179    1
    59   138   140   ar
    60    30    31    1
    61    30    27    1
    62   183   184    1
    63   183   182    1
    64    26    27    1
    65    33    31   ar
    66    33    35   ar
    67   139   141   ar
    68   179   182    1
    69   179   180    1
    70    31    32   ar
    71    27    28    1
    72    35    36   ar
    73   140   141   ar
    74   153   152    2
    75    32    34   ar
    76    28    29    2
    77   180   181    2
    78    36    34   ar
    79   152   151    1
    80   151   150    1
    81   118   120   ar
    82   118   116   ar
    83   120   119   ar
    84   116   115   ar
    85   208   207    1
    86    43    42    1
    87   119   117   ar
    88    79    78    1
    89   193   191    1
    90   192   190    1
    91   115   117   ar
    92   115   114    1
    93    42    41    1
    94    42    44    1
    95    37    38    1
    96   207   209    1
    97   207   206    1
    98    41    38    1
    99    96    98    1
   100    96    95    1
   101    78    77    1
   102   190   191    1
   103   190   187    1
   104   206   203    1
   105    49    46    1
   106   114   111    1
   107   110   111    1
   108    97    95    1
   109    45    46    1
   110    45    39   am
   111    38    39    1
   112   102   101    2
   113    63    61    1
   114    95    92    1
   115   111   112    1
   116   188   187    1
   117   188   189    2
   118   205   204    2
   119    46    47    1
   120    39    40    2
   121   187   186    1
   122    62    61    1
   123   203   204    1
   124   203   202    1
   125    94    93    2
   126   101   100    1
   127    77    76    1
   128    61    60    1
   129   201   200    1
   130    93    92    1
   131    47    48    2
   132   112   113    2
   133   112   121   am
   134    92    91    1
   135   202   196   am
   136    76    73    1
   137   103   100    1
   138   103   104    1
   139   100    99    1
   140    73    74    1
   141    73    72    1
   142    75    74    2
   143   121   122    1
   144    60    57    1
   145    91    82   am
   146    70    69    1
   147    67    66    2
   148   196   197    2
   149   196   195    1
   150    72    66   am
   151   200   199    1
   152    68    69    1
   153    68    65    1
   154    59    58    2
   155    66    65    1
   156   104   105    1
   157   199   198    1
   158   123   122    1
   159   123   124    2
   160   198   195    1
   161    57    58    1
   162    57    56    1
   163   194   195    1
   164    71    69    1
   165   122   125    1
   166   108   107    1
   167   105   106    1
   168    82    83    2
   169    82    81    1
   170    65    64    1
   171    54    51    1
   172    54    55    1
   173   125   126    1
   174    50    51    1
   175   107   106    2
   176   107   109    1
   177    80    81    1
   178    81    84    1
   179    51    52    1
   180    84    85    1
   181    11    10   ar
   182    11     9   ar
   183    52    53    2
   184    10     8   ar
   185     9     7   ar
   186    85    86    1
   187     8     6   ar
   188    86    87    1
   189     7     6   ar
   190     6     5    1
   191    89    88    1
   192    87    88    2
   193    88    90    1
   194     5     2    1
   195     3     2    1
   196     3     4    2
   197     2     1    1
