@<TRIPOS>MOLECULE
tmp/1excA00.pdb
 122 113 0 0 0
SMALL
GASTEIGER

@<TRIPOS>ATOM
      1  N         -4.8900  -16.5960   30.2760 N.3     8  ALA8       -0.1231
      2  CA        -3.5470  -16.9860   30.6450 C.3     8  ALA8        0.1694
      3  C         -3.3510  -16.8190   32.1460 C.2     8  ALA8        0.2593
      4  O         -2.4700  -16.0930   32.5750 O.2     8  ALA8       -0.2718
      5  CB        -2.5250  -16.1430   29.8730 C.3     8  ALA8        0.0304
      6  N         -4.1600  -17.4890   32.9590 N.am    9  SER9       -0.1938
      7  CA        -3.9850  -17.3450   34.3980 C.3     9  SER9        0.2055
      8  C         -4.4670  -18.5090   35.2570 C.2     9  SER9        0.2643
      9  O         -5.5270  -19.0800   35.0300 O.2     9  SER9       -0.2714
     10  CB        -4.6580  -16.0540   34.8670 C.3     9  SER9        0.2130
     11  OG        -4.4410  -15.8210   36.2470 O.3     9  SER9       -0.2179
     12  N         -3.6790  -18.8460   36.2680 N.am   10  GLN10      -0.1963
     13  CA        -4.0310  -19.9210   37.1830 C.3    10  GLN10       0.1733
     14  C         -4.5110  -19.3990   38.5330 C.2    10  GLN10       0.2617
     15  O         -4.4080  -20.0850   39.5470 O.2    10  GLN10      -0.2715
     16  CB        -2.8440  -20.8590   37.3830 C.3    10  GLN10       0.0408
     17  CG        -2.6260  -21.7980   36.2140 C.3    10  GLN10       0.0908
     18  CD        -1.5630  -22.8260   36.5080 C.2    10  GLN10       0.2608
     19  OE1       -0.4230  -22.4770   36.8230 O.2    10  GLN10      -0.2717
     20  NE2       -1.9270  -24.1070   36.4150 N.am   10  GLN10      -0.0878
     21  N         -5.0300  -18.1770   38.5400 N.am   11  SER11      -0.1950
     22  CA        -5.5530  -17.5620   39.7550 C.3    11  SER11       0.1924
     23  C         -7.0260  -17.9090   39.8550 C.2    11  SER11       0.2314
     24  O         -7.8170  -17.4960   39.0150 O.2    11  SER11      -0.2863
     25  CB        -5.4040  -16.0480   39.6800 C.3    11  SER11       0.2116
     26  OG        -6.3770  -15.4070   40.4860 O.3    11  SER11      -0.2180
     27  N         -9.3500  -14.9600   39.3650 N.3    14  ARG14      -0.1245
     28  CA        -9.5240  -14.4720   38.0090 C.3    14  ARG14       0.1563
     29  C        -10.4650  -15.3750   37.2480 C.2    14  ARG14       0.2260
     30  O        -11.1850  -14.9170   36.3490 O.2    14  ARG14      -0.2867
     31  CB        -8.1840  -14.3690   37.2880 C.3    14  ARG14       0.0307
     32  CG        -7.4560  -13.1310   37.6670 C.3    14  ARG14       0.0489
     33  CD        -6.1010  -12.9920   37.0350 C.3    14  ARG14       0.2205
     34  NE        -5.4630  -11.8260   37.6310 N.pl3  14  ARG14      -0.0865
     35  CZ        -4.2010  -11.7780   38.0340 C.cat  14  ARG14       0.5346
     36  NH1       -3.7200  -10.6620   38.5760 N.pl3  14  ARG14       0.1354
     37  NH2       -3.4270  -12.8480   37.8970 N.pl3  14  ARG14       0.1354
     38  N         -1.3720  -21.3980   30.5510 N.3    29  VAL29      -0.1231
     39  CA        -0.2890  -20.5270   30.9780 C.3    29  VAL29       0.1692
     40  C          1.1000  -21.0020   30.6130 C.2    29  VAL29       0.2593
     41  O          1.3600  -22.1920   30.5010 O.2    29  VAL29      -0.2718
     42  CB        -0.3030  -20.2990   32.5110 C.3    29  VAL29       0.0266
     43  CG1       -1.5850  -19.5810   32.9210 C.3    29  VAL29       0.0020
     44  CG2       -0.1520  -21.6210   33.2480 C.3    29  VAL29       0.0020
     45  N          1.9900  -20.0400   30.4190 N.am   30  SER30      -0.1938
     46  CA         3.3840  -20.3110   30.1090 C.3    30  SER30       0.2055
     47  C          4.1950  -19.3080   30.9320 C.2    30  SER30       0.2643
     48  O          4.1460  -18.0940   30.6970 O.2    30  SER30      -0.2714
     49  CB         3.6620  -20.1190   28.6240 C.3    30  SER30       0.2130
     50  OG         5.0030  -20.4730   28.3430 O.3    30  SER30      -0.2179
     51  N          4.9180  -19.8230   31.9170 N.am   31  GLU31      -0.1963
     52  CA         5.7190  -18.9860   32.7900 C.3    31  GLU31       0.1733
     53  C          6.5200  -17.9610   31.9930 C.2    31  GLU31       0.2616
     54  O          6.8740  -18.1930   30.8430 O.2    31  GLU31      -0.2715
     55  CB         6.6520  -19.8720   33.6320 C.3    31  GLU31       0.0429
     56  CG         7.3970  -19.1510   34.7360 C.3    31  GLU31       0.1163
     57  CD         7.6450  -20.0390   35.9490 C.2    31  GLU31       0.3649
     58  OE1        8.3980  -21.0320   35.8280 O.co2  31  GLU31      -0.2457
     59  OE2        7.0780  -19.7380   37.0260 O.co2  31  GLU31      -0.2457
     60  N          6.7600  -16.8090   32.6110 N.am   32  VAL32      -0.1977
     61  CA         7.5440  -15.7400   32.0020 C.3    32  VAL32       0.1596
     62  C          8.2650  -15.0430   33.1460 C.2    32  VAL32       0.2287
     63  O          7.8010  -15.0760   34.2830 O.2    32  VAL32      -0.2864
     64  CB         6.6570  -14.7000   31.2420 C.3    32  VAL32       0.0276
     65  CG1        5.7720  -15.4080   30.2400 C.3    32  VAL32       0.0022
     66  CG2        5.8200  -13.8880   32.2130 C.3    32  VAL32       0.0022
     67  N          9.2270  -12.5470   35.7640 N.3    34  GLU34      -0.1245
     68  CA         8.5040  -11.4710   36.4500 C.3    34  GLU34       0.1567
     69  C          9.4540  -10.3460   36.8770 C.2    34  GLU34       0.2260
     70  O          9.2520   -9.6900   37.9040 O.2    34  GLU34      -0.2867
     71  CB         7.7680  -12.0110   37.6850 C.3    34  GLU34       0.0388
     72  CG         6.8210  -10.9910   38.3410 C.3    34  GLU34       0.1160
     73  CD         6.4640  -11.3300   39.7850 C.2    34  GLU34       0.3649
     74  OE1        5.5970  -10.6420   40.3640 O.co2  34  GLU34      -0.2457
     75  OE2        7.0520  -12.2780   40.3460 O.co2  34  GLU34      -0.2457
     76  N          3.9420   -6.5640   32.6680 N.3    49  LEU49      -0.1245
     77  CA         3.8250   -7.9510   33.1140 C.3    49  LEU49       0.1561
     78  C          2.6100   -8.6400   32.5290 C.2    49  LEU49       0.2260
     79  O          2.7120   -9.7420   31.9920 O.2    49  LEU49      -0.2867
     80  CB         3.7480   -8.0120   34.6350 C.3    49  LEU49       0.0270
     81  CG         5.0390   -8.4220   35.3310 C.3    49  LEU49       0.0019
     82  CD1        4.9990   -8.0030   36.7930 C.3    49  LEU49       0.0001
     83  CD2        5.2150   -9.9090   35.2110 C.3    49  LEU49       0.0001
     84  N          2.7220  -12.0720   30.0620 N.3    53  LYS53      -0.1245
     85  CA         1.9120  -13.2580   30.3440 C.3    53  LYS53       0.1561
     86  C          0.9710  -13.6110   29.1950 C.2    53  LYS53       0.2260
     87  O          0.9180  -14.7650   28.7530 O.2    53  LYS53      -0.2867
     88  CB         1.0870  -13.0310   31.6030 C.3    53  LYS53       0.0271
     89  CG         1.9130  -12.8540   32.8470 C.3    53  LYS53       0.0035
     90  CD         1.0160  -12.5300   34.0120 C.3    53  LYS53       0.0206
     91  CE         1.7570  -12.6690   35.3110 C.3    53  LYS53       0.1093
     92  NZ         0.8300  -12.4590   36.4420 N.3    53  LYS53      -0.1314
     93  N         -3.0160  -10.8290   33.0500 N.3    69  ALA69      -0.1231
     94  CA        -3.3460   -9.9000   34.1320 C.3    69  ALA69       0.1694
     95  C         -2.3380   -9.9650   35.2760 C.2    69  ALA69       0.2592
     96  O         -1.6440  -10.9590   35.4540 O.2    69  ALA69      -0.2718
     97  CB        -4.7590  -10.1730   34.6520 C.3    69  ALA69       0.0304
     98  N         -2.2640   -8.8920   36.0510 N.am   70  ASP70      -0.1974
     99  CA        -1.3230   -8.8280   37.1550 C.3    70  ASP70       0.1709
    100  C         -1.7350   -7.7220   38.1300 C.2    70  ASP70       0.2293
    101  O         -2.1910   -6.6510   37.7120 O.2    70  ASP70      -0.2864
    102  CB         0.0860   -8.5690   36.6020 C.3    70  ASP70       0.1436
    103  CG         1.1710   -8.8080   37.6350 C.2    70  ASP70       0.3671
    104  OD1        1.5750   -7.8430   38.3170 O.co2  70  ASP70      -0.2456
    105  OD2        1.6080   -9.9760   37.7720 O.co2  70  ASP70      -0.2456
    106  N          4.6500  -10.6790   47.2960 N.3    82  LYS82      -0.1245
    107  CA         4.1920  -11.7450   48.1820 C.3    82  LYS82       0.1561
    108  C          5.2570  -11.9400   49.2530 C.2    82  LYS82       0.2260
    109  O          6.4400  -11.7210   49.0010 O.2    82  LYS82      -0.2867
    110  CB         3.9810  -13.0340   47.3810 C.3    82  LYS82       0.0271
    111  CG         2.8950  -12.9090   46.3100 C.3    82  LYS82       0.0035
    112  CD         2.9200  -14.0450   45.3110 C.3    82  LYS82       0.0206
    113  CE         1.8360  -13.8710   44.2510 C.3    82  LYS82       0.1093
    114  NZ         1.8590  -14.9480   43.2110 N.3    82  LYS82      -0.1314
    115  N         -0.2570  -16.2260   49.8750 N.3   145  ASP145     -0.1239
    116  CA        -0.5220  -16.4030   48.4540 C.3   145  ASP145      0.1674
    117  C         -0.7300  -15.1080   47.6730 C.2   145  ASP145      0.2266
    118  O         -0.9230  -15.1440   46.4600 O.2   145  ASP145     -0.2867
    119  CB        -1.7550  -17.2860   48.2630 C.3   145  ASP145      0.1410
    120  CG        -1.8570  -17.8410   46.8550 C.2   145  ASP145      0.3668
    121  OD1       -2.9400  -18.3410   46.4820 O.co2 145  ASP145     -0.2456
    122  OD2       -0.8480  -17.7870   46.1200 O.co2 145  ASP145     -0.2456
@<TRIPOS>BOND
     1    50    49    1
     2    49    46    1
     3    87    86    2
     4    86    85    1
     5     5     2    1
     6    84    85    1
     7    46    45    1
     8    46    47    1
     9    65    64    1
    10     1     2    1
    11    85    88    1
    12    45    40   am
    13    41    40    2
    14    38    39    1
    15    40    39    1
    16     2     3    1
    17    48    47    2
    18    54    53    2
    19    47    51   am
    20    39    42    1
    21    64    61    1
    22    64    66    1
    23    88    89    1
    24    51    52    1
    25    79    78    2
    26    53    60   am
    27    53    52    1
    28    61    60    1
    29    61    62    1
    30     3     4    2
    31     3     6   am
    32    42    43    1
    33    42    44    1
    34    78    77    1
    35    76    77    1
    36    52    55    1
    37    89    90    1
    38     6     7    1
    39    93    94    1
    40    77    80    1
    41    62    63    2
    42    55    56    1
    43    90    91    1
    44    94    97    1
    45    94    95    1
    46     7    10    1
    47     7     8    1
    48    80    81    1
    49    56    57    1
    50    10    11    1
    51     9     8    2
    52    83    81    1
    53     8    12   am
    54    95    96    2
    55    95    98   am
    56    91    92    1
    57    81    82    1
    58    67    68    1
    59    58    57   ar
    60    57    59   ar
    61    98    99    1
    62    17    18    1
    63    17    16    1
    64    12    13    1
    65    30    29    2
    66    20    18   am
    67    68    69    1
    68    68    71    1
    69    18    19    2
    70   102    99    1
    71   102   103    1
    72    69    70    2
    73    33    34    1
    74    33    32    1
    75    99   100    1
    76    13    16    1
    77    13    14    1
    78    29    28    1
    79    31    32    1
    80    31    28    1
    81    34    35    2
    82   103   105   ar
    83   103   104   ar
    84    71    72    1
    85   101   100    2
    86    37    35    1
    87    28    27    1
    88    35    36    1
    89    72    73    1
    90    14    21   am
    91    14    15    2
    92    21    22    1
    93    24    23    2
    94    25    22    1
    95    25    26    1
    96    22    23    1
    97    73    75   ar
    98    73    74   ar
    99   114   113    1
   100   113   112    1
   101   112   111    1
   102   122   120   ar
   103   111   110    1
   104   118   117    2
   105   121   120   ar
   106   120   119    1
   107   106   107    1
   108   110   107    1
   109   117   116    1
   110   107   108    1
   111   119   116    1
   112   116   115    1
   113   109   108    2
