@<TRIPOS>MOLECULE
tmp/1exiB00.pdb
 155 152 0 0 0
SMALL
GASTEIGER

@<TRIPOS>ATOM
      1  N         46.7520   78.6250  138.3080 N.3   142  PRO142     -0.2102
      2  CA        47.0610   80.0720  138.4410 C.3   142  PRO142      0.1504
      3  C         48.5130   80.2320  138.8510 C.2   142  PRO142      0.2576
      4  O         49.1120   81.3400  138.7940 O.2   142  PRO142     -0.2718
      5  CB        46.1230   80.5330  139.5690 C.3   142  PRO142      0.0282
      6  CG        45.0360   79.4880  139.6100 C.3   142  PRO142      0.0208
      7  CD        45.7490   78.1970  139.2950 C.3   142  PRO142      0.0893
      8  N         49.0620   79.0880  139.2540 N.am  143  GLU143     -0.1966
      9  CA        50.4300   78.9460  139.6960 C.3   143  GLU143      0.1733
     10  C         51.3080   78.6040  138.4990 C.2   143  GLU143      0.2616
     11  O         52.4960   78.9390  138.4680 O.2   143  GLU143     -0.2715
     12  CB        50.4990   77.8420  140.7170 C.3   143  GLU143      0.0429
     13  CG        49.8940   78.1770  142.0760 C.3   143  GLU143      0.1163
     14  CD        50.7960   79.0570  142.9300 C.2   143  GLU143      0.3649
     15  OE1       51.9980   78.7430  143.0580 O.co2 143  GLU143     -0.2457
     16  OE2       50.3000   80.0550  143.4900 O.co2 143  GLU143     -0.2457
     17  N         50.7130   77.9380  137.5120 N.am  144  ASN144     -0.1958
     18  CA        51.4330   77.5420  136.3100 C.3   144  ASN144      0.1819
     19  C         51.5610   78.7350  135.3810 C.2   144  ASN144      0.2621
     20  O         52.6420   79.2250  135.1670 O.2   144  ASN144     -0.2715
     21  CB        50.7010   76.4060  135.6210 C.3   144  ASN144      0.1195
     22  CG        50.4120   75.2360  136.5550 C.2   144  ASN144      0.2630
     23  OD1       49.7190   74.2930  136.1870 O.2   144  ASN144     -0.2716
     24  ND2       50.9490   75.2930  137.7590 N.am  144  ASN144     -0.0877
     25  N         50.4220   79.1780  134.8550 N.am  145  VAL145     -0.1963
     26  CA        50.2600   80.3170  133.9260 C.3   145  VAL145      0.1727
     27  C         51.3830   81.3220  133.7380 C.2   145  VAL145      0.2616
     28  O         51.9720   81.8040  134.7150 O.2   145  VAL145     -0.2715
     29  CB        49.0780   81.1620  134.3210 C.3   145  VAL145      0.0290
     30  CG1       47.8040   80.4650  134.0110 C.3   145  VAL145      0.0023
     31  CG2       49.1630   81.4860  135.7980 C.3   145  VAL145      0.0023
     32  N         51.6410   81.6530  132.4660 N.am  146  LEU146     -0.1963
     33  CA        52.6660   82.5960  132.0700 C.3   146  LEU146      0.1728
     34  C         52.1520   83.6540  131.1450 C.2   146  LEU146      0.2616
     35  O         51.1620   84.3600  131.4200 O.2   146  LEU146     -0.2715
     36  CB        53.7590   81.9050  131.2850 C.3   146  LEU146      0.0311
     37  CG        54.3140   80.5330  131.6650 C.3   146  LEU146      0.0022
     38  CD1       55.5340   80.2830  130.7790 C.3   146  LEU146      0.0001
     39  CD2       54.7130   80.4790  133.1520 C.3   146  LEU146      0.0001
     40  N         52.8490   83.7600  130.0210 N.am  147  ASN147     -0.1972
     41  CA        52.4990   84.7330  129.0250 C.3   147  ASN147      0.1688
     42  C         52.7620   84.0250  127.7640 C.2   147  ASN147      0.2292
     43  O         52.1210   84.2460  126.7510 O.2   147  ASN147     -0.2864
     44  CB        53.4470   85.9510  129.0850 C.3   147  ASN147      0.1181
     45  CG        53.2790   86.7860  130.3410 C.2   147  ASN147      0.2629
     46  OD1       53.1120   88.0000  130.2610 O.2   147  ASN147     -0.2716
     47  ND2       53.3590   86.1550  131.4950 N.am  147  ASN147     -0.0877
     48  N         43.5520   90.2110  130.5890 N.3   168  TYR168     -0.1241
     49  CA        44.0400   88.8440  130.4950 C.3   168  TYR168      0.1605
     50  C         43.1190   87.9100  131.2440 C.2   168  TYR168      0.2264
     51  O         42.8340   88.1210  132.4060 O.2   168  TYR168     -0.2867
     52  CB        45.4050   88.7610  131.1070 C.3   168  TYR168      0.0534
     53  CG        46.4850   89.1550  130.1740 C.ar  168  TYR168     -0.0201
     54  CD1       46.5920   90.4700  129.7140 C.ar  168  TYR168     -0.0009
     55  CD2       47.4280   88.2180  129.7370 C.ar  168  TYR168     -0.0009
     56  CE1       47.6280   90.8500  128.8230 C.ar  168  TYR168      0.0417
     57  CE2       48.4700   88.5850  128.8570 C.ar  168  TYR168      0.0417
     58  CZ        48.5590   89.8990  128.4020 C.ar  168  TYR168      0.1957
     59  OH        49.5760   90.2540  127.5380 O.3   168  TYR168     -0.2866
     60  N         43.3550   75.7330  136.0130 N.3   185  TYR185     -0.1241
     61  CA        42.7010   76.4660  134.9020 C.3   185  TYR185      0.1605
     62  C         41.9390   75.7010  133.8040 C.2   185  TYR185      0.2264
     63  O         42.4300   74.6960  133.2770 O.2   185  TYR185     -0.2867
     64  CB        43.6580   77.4800  134.2840 C.3   185  TYR185      0.0534
     65  CG        43.8060   78.7660  135.0870 C.ar  185  TYR185     -0.0201
     66  CD1       45.0680   79.3330  135.2930 C.ar  185  TYR185     -0.0009
     67  CD2       42.6770   79.4160  135.6320 C.ar  185  TYR185     -0.0009
     68  CE1       45.2050   80.4830  135.9970 C.ar  185  TYR185      0.0417
     69  CE2       42.8120   80.5700  136.3490 C.ar  185  TYR185      0.0417
     70  CZ        44.0780   81.1060  136.5330 C.ar  185  TYR185      0.1957
     71  OH        44.2420   82.2790  137.2510 O.3   185  TYR185     -0.2866
     72  N         46.1700   92.1790  142.9140 N.3   222  PHE222     -0.1241
     73  CA        46.7630   90.9270  143.2410 C.3   222  PHE222      0.1605
     74  C         47.9010   90.9960  144.2330 C.2   222  PHE222      0.2264
     75  O         48.7050   91.9520  144.2910 O.2   222  PHE222     -0.2867
     76  CB        47.1890   90.1980  141.9900 C.3   222  PHE222      0.0534
     77  CG        47.9400   88.9350  142.2530 C.ar  222  PHE222     -0.0203
     78  CD1       47.2700   87.7350  142.3740 C.ar  222  PHE222     -0.0042
     79  CD2       49.3130   88.9460  142.3640 C.ar  222  PHE222     -0.0042
     80  CE1       47.9660   86.5610  142.6110 C.ar  222  PHE222     -0.0003
     81  CE2       50.0120   87.7860  142.6020 C.ar  222  PHE222     -0.0003
     82  CZ        49.3490   86.5910  142.7210 C.ar  222  PHE222     -0.0000
     83  N         49.5820   87.4700  146.3780 N.3   224  PRO224     -0.2116
     84  CA        49.3910   86.0860  146.6520 C.3   224  PRO224      0.1372
     85  C         48.4920   85.8640  147.8620 C.2   224  PRO224      0.2244
     86  O         47.3440   85.4560  147.6920 O.2   224  PRO224     -0.2868
     87  CB        50.8230   85.6010  146.8710 C.3   224  PRO224      0.0268
     88  CG        51.5870   86.3450  145.7990 C.3   224  PRO224      0.0207
     89  CD        50.8330   87.6910  145.6320 C.3   224  PRO224      0.0892
     90  N         44.6410   87.2250  146.9670 N.3   227  TYR227     -0.1241
     91  CA        43.9010   86.4970  145.9280 C.3   227  TYR227      0.1605
     92  C         42.8790   85.4920  146.4290 C.2   227  TYR227      0.2264
     93  O         41.6710   85.4860  146.0460 O.2   227  TYR227     -0.2867
     94  CB        44.9610   85.7070  145.1840 C.3   227  TYR227      0.0534
     95  CG        44.4620   84.8370  144.0990 C.ar  227  TYR227     -0.0201
     96  CD1       43.5400   85.3170  143.1580 C.ar  227  TYR227     -0.0009
     97  CD2       44.9140   83.5290  143.9820 C.ar  227  TYR227     -0.0009
     98  CE1       43.0670   84.4960  142.1240 C.ar  227  TYR227      0.0417
     99  CE2       44.4640   82.7060  142.9630 C.ar  227  TYR227      0.0417
    100  CZ        43.5390   83.1940  142.0370 C.ar  227  TYR227      0.1957
    101  OH        43.0930   82.3800  141.0220 O.3   227  TYR227     -0.2866
    102  N         38.2120   85.1990  136.8620 N.3   251  GLU251     -0.1245
    103  CA        39.2680   86.0040  137.3710 C.3   251  GLU251      0.1567
    104  C         40.0300   86.4430  136.1110 C.2   251  GLU251      0.2260
    105  O         40.5870   85.6120  135.3340 O.2   251  GLU251     -0.2867
    106  CB        40.1060   85.2330  138.3490 C.3   251  GLU251      0.0388
    107  CG        41.4900   85.7040  138.4970 C.3   251  GLU251      0.1160
    108  CD        42.4350   84.5920  138.2280 C.2   251  GLU251      0.3649
    109  OE1       42.0910   83.4560  138.6390 O.co2 251  GLU251     -0.2457
    110  OE2       43.4840   84.8350  137.5800 O.co2 251  GLU251     -0.2457
    111  N         42.8330   89.4770  134.6800 N.3   253  ILE253     -0.1245
    112  CA        43.8400   90.4280  135.0920 C.3   253  ILE253      0.1561
    113  C         44.3030   91.5410  134.1470 C.2   253  ILE253      0.2260
    114  O         44.3870   91.3850  132.9230 O.2   253  ILE253     -0.2867
    115  CB        44.9980   89.7980  135.8840 C.3   253  ILE253      0.0252
    116  CG1       45.9200   90.9060  136.5000 C.3   253  ILE253      0.0019
    117  CG2       45.6520   88.6420  135.1120 C.3   253  ILE253      0.0019
    118  CD1       47.0180   91.4970  135.5850 C.3   253  ILE253      0.0001
    119  N         55.9990   95.2160  139.2360 N.3   264  GLU264     -0.1231
    120  CA        54.6670   95.1460  138.5920 C.3   264  GLU264      0.1699
    121  C         53.5600   94.5170  139.4260 C.2   264  GLU264      0.2592
    122  O         53.6210   93.3900  139.9390 O.2   264  GLU264     -0.2718
    123  CB        54.7900   94.5190  137.2090 C.3   264  GLU264      0.0402
    124  CG        54.7590   93.0120  137.1580 C.3   264  GLU264      0.1161
    125  CD        55.9520   92.4210  137.8400 C.2   264  GLU264      0.3649
    126  OE1       56.9120   92.0600  137.1420 O.co2 264  GLU264     -0.2457
    127  OE2       55.9370   92.3290  139.0900 O.co2 264  GLU264     -0.2457
    128  N         52.5420   95.3740  139.5160 N.am  265  GLU265     -0.1966
    129  CA        51.3120   95.1410  140.2340 C.3   265  GLU265      0.1733
    130  C         50.1690   95.2800  139.2640 C.2   265  GLU265      0.2616
    131  O         50.3010   95.9190  138.2070 O.2   265  GLU265     -0.2715
    132  CB        51.1390   96.1920  141.3300 C.3   265  GLU265      0.0429
    133  CG        51.4790   97.6050  140.8580 C.3   265  GLU265      0.1163
    134  CD        51.2610   98.6530  141.9400 C.2   265  GLU265      0.3649
    135  OE1       52.1910   99.4440  142.2020 O.co2 265  GLU265     -0.2457
    136  OE2       50.1550   98.6880  142.5290 O.co2 265  GLU265     -0.2457
    137  N         49.0450   94.6740  139.6280 N.am  266  TYR266     -0.1974
    138  CA        47.8800   94.7240  138.8000 C.3   266  TYR266      0.1639
    139  C         46.6230   94.4190  139.5280 C.2   266  TYR266      0.2290
    140  O         46.5980   93.7020  140.5380 O.2   266  TYR266     -0.2864
    141  CB        47.9620   93.7590  137.6240 C.3   266  TYR266      0.0560
    142  CG        49.2110   92.9710  137.4750 C.ar  266  TYR266     -0.0198
    143  CD1       49.6450   92.1140  138.4730 C.ar  266  TYR266     -0.0009
    144  CD2       49.9690   93.0770  136.3050 C.ar  266  TYR266     -0.0009
    145  CE1       50.8190   91.3760  138.3070 C.ar  266  TYR266      0.0417
    146  CE2       51.1400   92.3490  136.1230 C.ar  266  TYR266      0.0417
    147  CZ        51.5670   91.5010  137.1160 C.ar  266  TYR266      0.1957
    148  OH        52.7370   90.7940  136.9050 O.3   266  TYR266     -0.2866
    149  N         43.0170   92.6940  139.8780 N.3   268  VAL268     -0.1245
    150  CA        42.3730   91.3890  139.5770 C.3   268  VAL268      0.1561
    151  C         40.8750   91.4390  139.6520 C.2   268  VAL268      0.2260
    152  O         40.3300   92.3210  140.3380 O.2   268  VAL268     -0.2867
    153  CB        42.7990   90.3560  140.5050 C.3   268  VAL268      0.0252
    154  CG1       42.7700   89.1010  139.8120 C.3   268  VAL268      0.0019
    155  CG2       44.1700   90.6840  141.0200 C.3   268  VAL268      0.0019
@<TRIPOS>BOND
     1    43    42    2
     2    59    58    1
     3    42    41    1
     4    58    56   ar
     5    58    57   ar
     6    56    54   ar
     7    57    55   ar
     8    41    44    1
     9    41    40    1
    10    44    45    1
    11    54    53   ar
    12    55    53   ar
    13    40    34   am
    14    53    52    1
    15    46    45    2
    16    45    47   am
    17    49    48    1
    18    49    52    1
    19    49    50    1
    20    38    37    1
    21    34    35    2
    22    34    33    1
    23    50    51    2
    24    36    37    1
    25    36    33    1
    26    37    39    1
    27    33    32    1
    28    32    27   am
    29   114   113    2
    30    63    62    2
    31    27    26    1
    32    27    28    2
    33    62    61    1
    34    26    29    1
    35    26    25    1
    36    30    29    1
    37   113   112    1
    38    64    61    1
    39    64    65    1
    40    29    31    1
    41   111   112    1
    42    25    19   am
    43    61    60    1
    44    65    66   ar
    45    65    67   ar
    46   112   115    1
    47   117   115    1
    48    20    19    2
    49    66    68   ar
    50   105   104    2
    51    19    18    1
    52   118   116    1
    53    21    18    1
    54    21    22    1
    55    67    69   ar
    56   115   116    1
    57    68    70   ar
    58   104   103    1
    59   146   144   ar
    60   146   147   ar
    61    23    22    2
    62   144   142   ar
    63    18    17    1
    64    69    70   ar
    65    70    71    1
    66    22    24   am
    67   102   103    1
    68   148   147    1
    69   147   145   ar
    70   126   125   ar
    71   124   123    1
    72   124   125    1
    73   123   120    1
    74   103   106    1
    75   142   141    1
    76   142   143   ar
    77    17    10   am
    78   110   108   ar
    79   141   138    1
    80   125   127   ar
    81   131   130    2
    82   108   107    1
    83   108   109   ar
    84   145   143   ar
    85     1     2    1
    86     1     7    1
    87   106   107    1
    88     2     3    1
    89     2     5    1
    90    11    10    2
    91    10     9    1
    92   120   119    1
    93   120   121    1
    94     4     3    2
    95   138   139    1
    96   138   137    1
    97     3     8   am
    98     8     9    1
    99   130   137   am
   100   130   129    1
   101     7     6    1
   102   121   128   am
   103   121   122    2
   104   128   129    1
   105   139   140    2
   106     5     6    1
   107   150   151    1
   108   150   149    1
   109   150   153    1
   110   151   152    2
   111     9    12    1
   112   154   153    1
   113   129   132    1
   114   153   155    1
   115    12    13    1
   116   133   132    1
   117   133   134    1
   118   101   100    1
   119   134   135   ar
   120   134   136   ar
   121    76    77    1
   122    76    73    1
   123   100    98   ar
   124   100    99   ar
   125    13    14    1
   126    98    96   ar
   127    77    79   ar
   128    77    78   ar
   129    79    81   ar
   130    78    80   ar
   131    81    82   ar
   132    80    82   ar
   133    72    73    1
   134    14    15   ar
   135    14    16   ar
   136    99    97   ar
   137    96    95   ar
   138    73    74    1
   139    97    95   ar
   140    95    94    1
   141    74    75    2
   142    94    91    1
   143    89    88    1
   144    89    83    1
   145    88    87    1
   146    91    92    1
   147    91    90    1
   148    93    92    2
   149    83    84    1
   150    84    87    1
   151    84    85    1
   152    86    85    2
