@<TRIPOS>MOLECULE
tmp/1expA00.pdb
 145 141 0 0 0
SMALL
GASTEIGER

@<TRIPOS>ATOM
      1  N         20.7370   66.2650   46.1970 N.3    43  GLU43      -0.1231
      2  CA        20.0560   66.0760   44.9110 C.3    43  GLU43       0.1699
      3  C         18.9680   67.1230   44.7470 C.2    43  GLU43       0.2592
      4  O         18.8660   67.7500   43.6780 O.2    43  GLU43      -0.2718
      5  CB        19.4470   64.6660   44.8100 C.3    43  GLU43       0.0402
      6  CG        18.6400   64.4110   43.5070 C.3    43  GLU43       0.1161
      7  CD        18.1490   62.9650   43.3840 C.2    43  GLU43       0.3649
      8  OE1       17.8840   62.3150   44.4220 O.co2  43  GLU43      -0.2457
      9  OE2       18.0100   62.4790   42.2360 O.co2  43  GLU43      -0.2457
     10  N         18.1270   67.3110   45.7820 N.am   44  ASN44      -0.1974
     11  CA        17.0350   68.2640   45.7320 C.3    44  ASN44       0.1688
     12  C         16.8620   69.2000   46.9090 C.2    44  ASN44       0.2292
     13  O         16.3370   70.2800   46.7590 O.2    44  ASN44      -0.2864
     14  CB        15.7090   67.5340   45.5160 C.3    44  ASN44       0.1181
     15  CG        15.6220   66.8870   44.1500 C.2    44  ASN44       0.2629
     16  OD1       15.4940   67.5880   43.1570 O.2    44  ASN44      -0.2716
     17  ND2       15.6780   65.5560   44.0910 N.am   44  ASN44      -0.0877
     18  N         17.7400   73.2880   46.5780 N.3    47  LYS47      -0.1245
     19  CA        17.2470   74.1300   45.4890 C.3    47  LYS47       0.1561
     20  C         16.2680   75.1300   46.0550 C.2    47  LYS47       0.2260
     21  O         15.8600   75.0240   47.2320 O.2    47  LYS47      -0.2867
     22  CB        16.5630   73.2550   44.4300 C.3    47  LYS47       0.0271
     23  CG        17.5280   72.2430   43.8120 C.3    47  LYS47       0.0035
     24  CD        16.7810   71.1540   43.0070 C.3    47  LYS47       0.0206
     25  CE        17.8350   70.4460   42.1370 C.3    47  LYS47       0.1093
     26  NZ        17.3590   69.0640   41.5940 N.3    47  LYS47      -0.1314
     27  N         24.0310   72.9020   45.9440 N.3    80  HIS80      -0.1241
     28  CA        23.2840   72.9600   44.6790 C.3    80  HIS80       0.1621
     29  C         21.8180   73.2240   44.9590 C.2    80  HIS80       0.2264
     30  O         21.2040   72.3720   45.5750 O.2    80  HIS80      -0.2867
     31  CB        23.4640   71.5900   44.0410 C.3    80  HIS80       0.0745
     32  CG        22.7380   71.4140   42.7460 C.ar   80  HIS80       0.0817
     33  ND1       23.2210   71.9190   41.5530 N.ar   80  HIS80      -0.2268
     34  CD2       21.5860   70.7740   42.4490 C.ar   80  HIS80       0.1154
     35  CE1       22.3900   71.5900   40.5780 C.ar   80  HIS80       0.1986
     36  NE2       21.3930   70.8990   41.0930 N.ar   80  HIS80      -0.2212
     37  N         18.4310   79.1290   39.5140 N.3    84  TRP84      -0.1241
     38  CA        18.1810   78.1200   38.4920 C.3    84  TRP84       0.1605
     39  C         16.7780   78.3070   37.9920 C.2    84  TRP84       0.2264
     40  O         15.8520   78.4600   38.7840 O.2    84  TRP84      -0.2867
     41  CB        18.3310   76.7200   39.0910 C.3    84  TRP84       0.0550
     42  CG        18.1960   75.6180   38.0770 C.ar   84  TRP84       0.0003
     43  CD1       18.4430   75.6990   36.7130 C.ar   84  TRP84       0.0946
     44  CD2       17.8160   74.2750   38.3320 C.ar   84  TRP84       0.0152
     45  NE1       18.2320   74.4740   36.1370 N.ar   84  TRP84      -0.2442
     46  CE2       17.8540   73.5830   37.1030 C.ar   84  TRP84       0.0810
     47  CE3       17.4310   73.5760   39.4880 C.ar   84  TRP84       0.0012
     48  CZ2       17.5290   72.2150   37.0010 C.ar   84  TRP84       0.0191
     49  CZ3       17.1020   72.2320   39.3800 C.ar   84  TRP84       0.0001
     50  CH2       17.1550   71.5640   38.1490 C.ar   84  TRP84       0.0015
     51  N         14.6420   76.1540   36.6150 N.3    86  SER86      -0.1202
     52  CA        13.6640   75.1000   36.9200 C.3    86  SER86       0.2020
     53  C         13.4740   75.0280   38.4210 C.2    86  SER86       0.2618
     54  O         14.3570   75.4030   39.1680 O.2    86  SER86      -0.2717
     55  CB        14.1140   73.7020   36.4700 C.3    86  SER86       0.2103
     56  OG        14.9820   73.7470   35.3620 O.3    86  SER86      -0.2182
     57  N         12.3780   74.4030   38.8280 N.am   87  GLN87      -0.1979
     58  CA        12.0470   74.2260   40.2420 C.3    87  GLN87       0.1601
     59  C         12.0270   75.5780   40.9420 C.2    87  GLN87       0.2287
     60  O         12.5570   75.7360   42.0690 O.2    87  GLN87      -0.2864
     61  CB        13.0460   73.2510   40.9150 C.3    87  GLN87       0.0394
     62  CG        13.1470   71.8650   40.2740 C.3    87  GLN87       0.0908
     63  CD        11.8620   71.0270   40.3710 C.2    87  GLN87       0.2608
     64  OE1       10.9610   71.2890   41.2230 O.2    87  GLN87      -0.2717
     65  NE2       11.8070   69.9700   39.5480 N.am   87  GLN87      -0.0878
     66  N         23.0360   78.0660   37.6070 N.3   126  ASN126     -0.1225
     67  CA        23.0840   76.7840   36.9250 C.3   126  ASN126      0.1785
     68  C         22.2220   76.8770   35.6390 C.2   126  ASN126      0.2597
     69  O         21.1460   77.4840   35.6570 O.2   126  ASN126     -0.2718
     70  CB        22.4130   75.7900   37.8590 C.3   126  ASN126      0.1169
     71  CG        22.4500   74.3940   37.3880 C.2   126  ASN126      0.2627
     72  OD1       23.4710   73.8820   37.0210 O.2   126  ASN126     -0.2716
     73  ND2       21.3330   73.7200   37.5290 N.am  126  ASN126     -0.0877
     74  N         22.7790   76.4230   34.5230 N.am  127  GLU127     -0.1979
     75  CA        21.9980   76.3550   33.2630 C.3   127  GLU127      0.1602
     76  C         21.5680   77.6740   32.6830 C.2   127  GLU127      0.2287
     77  O         20.4150   77.8680   32.2830 O.2   127  GLU127     -0.2864
     78  CB        20.8080   75.4630   33.5090 C.3   127  GLU127      0.0415
     79  CG        21.3040   74.0460   33.7990 C.3   127  GLU127      0.1163
     80  CD        20.2190   73.0450   33.9130 C.2   127  GLU127      0.3649
     81  OE1       19.0260   73.3730   33.6670 O.co2 127  GLU127     -0.2457
     82  OE2       20.5640   71.9070   34.2570 O.co2 127  GLU127     -0.2457
     83  N         28.0890   69.3730   34.0350 N.3   203  GLN203     -0.1245
     84  CA        27.1750   68.3330   34.4380 C.3   203  GLN203      0.1566
     85  C         27.5240   66.9330   33.9630 C.2   203  GLN203      0.2260
     86  O         27.5240   65.9670   34.7450 O.2   203  GLN203     -0.2867
     87  CB        25.7510   68.7290   34.0960 C.3   203  GLN203      0.0367
     88  CG        25.2540   69.9630   34.8180 C.3   203  GLN203      0.0905
     89  CD        23.8030   70.1730   34.5830 C.2   203  GLN203      0.2608
     90  OE1       23.0890   69.2320   34.2730 O.2   203  GLN203     -0.2717
     91  NE2       23.3380   71.3890   34.7570 N.am  203  GLN203     -0.0878
     92  N         25.8670   64.7850   31.8300 N.3   205  HIS205     -0.1241
     93  CA        24.7710   63.8390   31.7020 C.3   205  HIS205      0.1621
     94  C         24.9690   63.3640   30.2550 C.2   205  HIS205      0.2264
     95  O         24.4410   63.9820   29.3220 O.2   205  HIS205     -0.2867
     96  CB        23.4260   64.5200   31.8110 C.3   205  HIS205      0.0745
     97  CG        23.0780   64.9370   33.2060 C.ar  205  HIS205      0.0817
     98  ND1       22.9950   64.0390   34.2490 N.ar  205  HIS205     -0.2268
     99  CD2       22.7400   66.1410   33.7140 C.ar  205  HIS205      0.1154
    100  CE1       22.6170   64.6740   35.3400 C.ar  205  HIS205      0.1986
    101  NE2       22.4540   65.9500   35.0430 N.ar  205  HIS205     -0.2212
    102  N         27.5080   66.1830   37.5750 N.3   233  GLU233     -0.1245
    103  CA        26.3030   65.3830   37.6650 C.3   233  GLU233      0.1567
    104  C         26.3660   64.2330   36.6890 C.2   233  GLU233      0.2260
    105  O         25.3860   63.9030   36.0270 O.2   233  GLU233     -0.2867
    106  CB        25.0810   66.2340   37.3680 C.3   233  GLU233      0.0388
    107  CG        25.1250   67.6320   37.9940 C.3   233  GLU233      0.1160
    108  CD        23.8910   68.4050   37.7470 C.2   233  GLU233      0.3649
    109  OE1       22.7170   67.7790   37.3240 O.co2 233  GLU233     -0.2457
    110  OE2       23.8540   69.6270   37.9480 O.co2 233  GLU233     -0.2457
    111  N         25.6440   61.4620   39.6760 N.3   273  TRP273     -0.1241
    112  CA        24.3090   61.8660   40.0670 C.3   273  TRP273      0.1605
    113  C         23.4500   60.7670   40.6750 C.2   273  TRP273      0.2264
    114  O         22.3520   60.4700   40.2120 O.2   273  TRP273     -0.2867
    115  CB        23.5500   62.5920   38.9180 C.3   273  TRP273      0.0550
    116  CG        22.5790   63.6490   39.4340 C.ar  273  TRP273      0.0003
    117  CD1       21.2460   63.6910   39.2480 C.ar  273  TRP273      0.0946
    118  CD2       22.8950   64.7750   40.2660 C.ar  273  TRP273      0.0152
    119  NE1       20.7160   64.7710   39.8980 N.ar  273  TRP273     -0.2442
    120  CE2       21.7050   65.4600   40.5220 C.ar  273  TRP273      0.0810
    121  CE3       24.0890   65.2800   40.7980 C.ar  273  TRP273      0.0012
    122  CZ2       21.6540   66.6430   41.2760 C.ar  273  TRP273      0.0191
    123  CZ3       24.0420   66.4490   41.5320 C.ar  273  TRP273      0.0001
    124  CH2       22.8380   67.1210   41.7620 C.ar  273  TRP273      0.0015
    125  N         17.2440   59.6660   38.2140 N.3   281  TRP281     -0.1241
    126  CA        16.2580   60.5600   37.6190 C.3   281  TRP281      0.1605
    127  C         16.0110   60.2920   36.1330 C.2   281  TRP281      0.2264
    128  O         15.0250   60.7780   35.5770 O.2   281  TRP281     -0.2867
    129  CB        16.7110   62.0140   37.7390 C.3   281  TRP281      0.0550
    130  CG        17.8620   62.3440   36.8230 C.ar  281  TRP281      0.0003
    131  CD1       19.1710   62.0660   37.0320 C.ar  281  TRP281      0.0946
    132  CD2       17.7890   62.9670   35.5280 C.ar  281  TRP281      0.0152
    133  NE1       19.9270   62.4690   35.9640 N.ar  281  TRP281     -0.2442
    134  CE2       19.1010   63.0270   35.0210 C.ar  281  TRP281      0.0810
    135  CE3       16.7350   63.4780   34.7430 C.ar  281  TRP281      0.0012
    136  CZ2       19.4000   63.5780   33.7570 C.ar  281  TRP281      0.0191
    137  CZ3       17.0330   64.0260   33.4820 C.ar  281  TRP281      0.0001
    138  CH2       18.3530   64.0710   33.0090 C.ar  281  TRP281      0.0015
    139  N         12.5270   61.2390   32.8850 N.3   285  VAL285     -0.1245
    140  CA        12.6810   62.2980   31.8970 C.3   285  VAL285      0.1561
    141  C         12.7910   61.7080   30.4860 C.2   285  VAL285      0.2260
    142  O         12.0650   62.1100   29.5650 O.2   285  VAL285     -0.2867
    143  CB        13.9240   63.1650   32.2510 C.3   285  VAL285      0.0252
    144  CG1       14.4640   63.8840   31.0440 C.3   285  VAL285      0.0019
    145  CG2       13.5470   64.1750   33.3080 C.3   285  VAL285      0.0019
@<TRIPOS>BOND
     1    95    94    2
     2   142   141    2
     3    94    93    1
     4   141   140    1
     5   144   143    1
     6    93    96    1
     7    93    92    1
     8    96    97    1
     9   140   143    1
    10   140   139    1
    11   143   145    1
    12    77    76    2
    13    76    75    1
    14   138   137   ar
    15   138   136   ar
    16    97    99   ar
    17    97    98   ar
    18    75    78    1
    19    75    74    1
    20   137   135   ar
    21    78    79    1
    22    81    80   ar
    23    99   101   ar
    24   136   134   ar
    25    79    80    1
    26    80    82   ar
    27    85    84    1
    28    85    86    2
    29    83    84    1
    30    87    84    1
    31    87    88    1
    32    98   100   ar
    33    90    89    2
    34    74    68   am
    35    89    91   am
    36    89    88    1
    37   135   132   ar
    38   134   132   ar
    39   134   133   ar
    40   101   100   ar
    41    56    55    1
    42   132   130   ar
    43   128   127    2
    44    68    69    2
    45    68    67    1
    46   133   131   ar
    47   105   104    2
    48   127   126    1
    49    45    43   ar
    50    45    46   ar
    51    55    52    1
    52    51    52    1
    53   104   103    1
    54    43    42   ar
    55   130   131   ar
    56   130   129    1
    57    52    53    1
    58    67    66    1
    59    67    70    1
    60    48    46   ar
    61    48    50   ar
    62    72    71    2
    63    46    44   ar
    64   109   108   ar
    65   106   103    1
    66   106   107    1
    67    71    73   am
    68    71    70    1
    69   102   103    1
    70   126   129    1
    71   126   125    1
    72   108   110   ar
    73   108   107    1
    74    39    38    1
    75    39    40    2
    76    42    44   ar
    77    42    41    1
    78    50    49   ar
    79    44    47   ar
    80    53    57   am
    81    53    54    2
    82    38    41    1
    83    38    37    1
    84    57    58    1
    85   115   116    1
    86   115   112    1
    87   117   116   ar
    88   117   119   ar
    89    49    47   ar
    90   116   118   ar
    91    65    63   am
    92   111   112    1
    93   119   120   ar
    94   112   113    1
    95   114   113    2
    96    58    61    1
    97    58    59    1
    98   118   120   ar
    99   118   121   ar
   100    62    63    1
   101    62    61    1
   102    63    64    2
   103   120   122   ar
   104    35    36   ar
   105    35    33   ar
   106   121   123   ar
   107    59    60    2
   108    36    34   ar
   109   122   124   ar
   110   123   124   ar
   111    33    32   ar
   112    26    25    1
   113    25    24    1
   114     9     7   ar
   115    34    32   ar
   116    32    31    1
   117    24    23    1
   118    16    15    2
   119     7     6    1
   120     7     8   ar
   121     6     5    1
   122     4     3    2
   123    23    22    1
   124    31    28    1
   125    17    15   am
   126    15    14    1
   127    22    19    1
   128    28    29    1
   129    28    27    1
   130     3     2    1
   131     3    10   am
   132     5     2    1
   133     2     1    1
   134    29    30    2
   135    19    20    1
   136    19    18    1
   137    14    11    1
   138    11    10    1
   139    11    12    1
   140    20    21    2
   141    13    12    2
