@<TRIPOS>MOLECULE
tmp/1exvB02.pdb
 115 115 0 0 0
SMALL
GASTEIGER

@<TRIPOS>ATOM
      1  N        102.0390  100.0240   78.6780 N.3    15  PHE15      -0.1227
      2  CA       100.5890  100.0720   78.7480 C.3    15  PHE15       0.1736
      3  C         99.8660   98.7760   78.3970 C.2    15  PHE15       0.2596
      4  O         98.8700   98.4170   79.0370 O.2    15  PHE15      -0.2718
      5  CB       100.0640  101.1830   77.8380 C.3    15  PHE15       0.0547
      6  CG       100.3130  102.5700   78.3620 C.ar   15  PHE15      -0.0202
      7  CD1       99.6490  103.0270   79.5040 C.ar   15  PHE15      -0.0042
      8  CD2      101.2110  103.4240   77.7150 C.ar   15  PHE15      -0.0042
      9  CE1       99.8750  104.3170   79.9960 C.ar   15  PHE15      -0.0003
     10  CE2      101.4470  104.7170   78.1940 C.ar   15  PHE15      -0.0003
     11  CZ       100.7800  105.1650   79.3380 C.ar   15  PHE15      -0.0000
     12  N        100.3570   98.0700   77.3890 N.am   16  THR16      -0.1939
     13  CA        99.7050   96.8450   76.9680 C.3    16  THR16       0.2028
     14  C        100.1910   95.5760   77.6770 C.2    16  THR16       0.2642
     15  O         99.4080   94.6560   77.9140 O.2    16  THR16      -0.2714
     16  CB        99.8450   96.6910   75.4530 C.3    16  THR16       0.1808
     17  OG1       99.5140   97.9470   74.8390 O.3    16  THR16      -0.2208
     18  CG2       98.9050   95.6130   74.9240 C.3    16  THR16       0.0379
     19  N        101.4670   95.5220   78.0300 N.am   17  LEU17      -0.1963
     20  CA       101.9790   94.3420   78.7090 C.3    17  LEU17       0.1728
     21  C        102.2640   94.5900   80.1880 C.2    17  LEU17       0.2616
     22  O        102.5800   93.6470   80.9250 O.2    17  LEU17      -0.2715
     23  CB       103.2460   93.8190   78.0060 C.3    17  LEU17       0.0311
     24  CG       103.0550   92.8970   76.7860 C.3    17  LEU17       0.0022
     25  CD1      101.9780   91.8530   77.0970 C.3    17  LEU17       0.0001
     26  CD2      102.6610   93.7000   75.5770 C.3    17  LEU17       0.0001
     27  N        102.1490   95.8520   80.6140 N.am   18  VAL18      -0.1977
     28  CA       102.3880   96.2270   82.0040 C.3    18  VAL18       0.1596
     29  C        103.7650   95.7620   82.4670 C.2    18  VAL18       0.2287
     30  O        103.8850   95.1490   83.5250 O.2    18  VAL18      -0.2864
     31  CB       101.3360   95.5830   82.9320 C.3    18  VAL18       0.0276
     32  CG1      101.2540   96.3550   84.2400 C.3    18  VAL18       0.0022
     33  CG2       99.9780   95.5380   82.2420 C.3    18  VAL18       0.0022
     34  N        104.9850   90.1980   72.1320 N.3    31  PHE31      -0.1241
     35  CA       103.6580   90.7860   72.1020 C.3    31  PHE31       0.1605
     36  C        103.7130   92.2850   71.8690 C.2    31  PHE31       0.2264
     37  O        102.8880   92.8400   71.1440 O.2    31  PHE31      -0.2867
     38  CB       102.9020   90.4910   73.4010 C.3    31  PHE31       0.0534
     39  CG       102.3530   89.0970   73.4800 C.ar   31  PHE31      -0.0203
     40  CD1      101.9100   88.4430   72.3300 C.ar   31  PHE31      -0.0042
     41  CD2      102.2440   88.4490   74.7110 C.ar   31  PHE31      -0.0042
     42  CE1      101.3630   87.1580   72.3970 C.ar   31  PHE31      -0.0003
     43  CE2      101.6980   87.1630   74.7960 C.ar   31  PHE31      -0.0003
     44  CZ       101.2570   86.5150   73.6360 C.ar   31  PHE31      -0.0000
     45  N        102.0610   94.1260   68.6010 N.3    35  HIS35      -0.1241
     46  CA       101.1210   95.2280   68.7180 C.3    35  HIS35       0.1621
     47  C        101.6000   96.4240   67.9330 C.2    35  HIS35       0.2264
     48  O        100.8110   97.0910   67.2590 O.2    35  HIS35      -0.2867
     49  CB       100.8960   95.6110   70.1860 C.3    35  HIS35       0.0745
     50  CG        99.8790   94.7550   70.8830 C.ar   35  HIS35       0.0817
     51  ND1      100.1660   93.4930   71.3630 N.ar   35  HIS35      -0.2268
     52  CD2       98.5660   94.9710   71.1500 C.ar   35  HIS35       0.1154
     53  CE1       99.0750   92.9710   71.8960 C.ar   35  HIS35       0.1986
     54  NE2       98.0910   93.8470   71.7800 N.ar   35  HIS35      -0.2212
     55  N        100.9530   95.5240   64.4690 N.3    38  ARG38      -0.1245
     56  CA        99.5080   95.4320   64.2730 C.3    38  ARG38       0.1563
     57  C         98.8290   96.7980   64.0570 C.2    38  ARG38       0.2260
     58  O         97.8960   96.9280   63.2450 O.2    38  ARG38      -0.2867
     59  CB        98.8720   94.7250   65.4750 C.3    38  ARG38       0.0307
     60  CG        97.4470   94.2860   65.2520 C.3    38  ARG38       0.0489
     61  CD        96.8310   93.6460   66.4970 C.3    38  ARG38       0.2205
     62  NE        96.4600   94.6340   67.5070 N.pl3  38  ARG38      -0.0865
     63  CZ        95.9200   94.3310   68.6850 C.cat  38  ARG38       0.5346
     64  NH1       95.6910   93.0630   69.0090 N.pl3  38  ARG38       0.1354
     65  NH2       95.5790   95.2970   69.5260 N.pl3  38  ARG38       0.1354
     66  N         96.0680   79.1080   71.4960 N.3   161  LEU161     -0.1231
     67  CA        95.4680   80.3270   72.0310 C.3   161  LEU161      0.1693
     68  C         95.7500   80.6000   73.5130 C.2   161  LEU161      0.2592
     69  O         95.3490   81.6410   74.0400 O.2   161  LEU161     -0.2718
     70  CB        93.9540   80.2990   71.8120 C.3   161  LEU161      0.0284
     71  CG        93.4570   80.2740   70.3650 C.3   161  LEU161      0.0019
     72  CD1       91.9480   80.1930   70.3680 C.3   161  LEU161      0.0001
     73  CD2       93.9300   81.5220   69.6160 C.3   161  LEU161      0.0001
     74  N         96.4470   79.6860   74.1800 N.am  162  ARG162     -0.1966
     75  CA        96.7320   79.8390   75.6040 C.3   162  ARG162      0.1729
     76  C         97.1830   81.2290   76.0480 C.2   162  ARG162      0.2616
     77  O         96.5920   81.8330   76.9440 O.2   162  ARG162     -0.2715
     78  CB        97.7660   78.8070   76.0540 C.3   162  ARG162      0.0348
     79  CG        98.1210   78.9050   77.5390 C.3   162  ARG162      0.0492
     80  CD        98.7930   77.6370   78.0550 C.3   162  ARG162      0.2205
     81  NE        97.8520   76.5190   78.1440 N.pl3 162  ARG162     -0.0865
     82  CZ        98.1750   75.2850   78.5300 C.cat 162  ARG162      0.5346
     83  NH1       99.4250   74.9900   78.8700 N.pl3 162  ARG162      0.1354
     84  NH2       97.2390   74.3430   78.5780 N.pl3 162  ARG162      0.1354
     85  N         98.2280   81.7380   75.4150 N.am  163  TYR163     -0.1960
     86  CA        98.7580   83.0400   75.7730 C.3   163  TYR163      0.1771
     87  C         98.1690   84.2100   74.9950 C.2   163  TYR163      0.2620
     88  O         98.6220   85.3430   75.1540 O.2   163  TYR163     -0.2715
     89  CB       100.2750   83.0140   75.6240 C.3   163  TYR163      0.0574
     90  CG       100.9020   81.8470   76.3550 C.ar  163  TYR163     -0.0198
     91  CD1      101.6990   80.9210   75.6800 C.ar  163  TYR163     -0.0009
     92  CD2      100.6670   81.6460   77.7210 C.ar  163  TYR163     -0.0009
     93  CE1      102.2420   79.8180   76.3420 C.ar  163  TYR163      0.0417
     94  CE2      101.2060   80.5450   78.3950 C.ar  163  TYR163      0.0417
     95  CZ       101.9900   79.6360   77.7010 C.ar  163  TYR163      0.1957
     96  OH       102.5080   78.5400   78.3600 O.3   163  TYR163     -0.2866
     97  N         97.1670   83.9470   74.1580 N.am  164  GLY164     -0.1940
     98  CA        96.5500   85.0250   73.4000 C.3   164  GLY164      0.2014
     99  C         97.0040   85.1530   71.9620 C.2   164  GLY164      0.2639
    100  O         98.1250   84.7950   71.6160 O.2   164  GLY164     -0.2714
    101  N         96.1230   85.6780   71.1200 N.am  165  ASN165     -0.1958
    102  CA        96.4090   85.8610   69.7030 C.3   165  ASN165      0.1804
    103  C         96.1090   87.3070   69.3640 C.2   165  ASN165      0.2463
    104  O         94.9520   87.7110   69.2830 O.2   165  ASN165     -0.2730
    105  CB        95.5500   84.8970   68.8650 C.3   165  ASN165      0.1195
    106  CG        95.5850   85.2040   67.3710 C.2   165  ASN165      0.2630
    107  OD1       96.5020   85.8530   66.8730 O.2   165  ASN165     -0.2716
    108  ND2       94.5820   84.7250   66.6550 N.am  165  ASN165     -0.0877
    109  N         97.1640   88.1160   69.1760 N.am  166  PRO166     -0.2727
    110  CA        97.0430   89.5360   68.8490 C.3   166  PRO166      0.1402
    111  C         96.5050   89.8090   67.4490 C.2   166  PRO166      0.2269
    112  O         95.9960   90.8990   67.1730 O.2   166  PRO166     -0.2865
    113  CB        98.4660   90.0470   69.0240 C.3   166  PRO166      0.0296
    114  CG        99.2810   88.8730   68.5800 C.3   166  PRO166      0.0237
    115  CD        98.5800   87.7120   69.2400 C.3   166  PRO166      0.0939
@<TRIPOS>BOND
     1    58    57    2
     2    57    56    1
     3    56    55    1
     4    56    59    1
     5    60    59    1
     6    60    61    1
     7    61    62    1
     8   108   106   am
     9   107   106    2
    10   112   111    2
    11    48    47    2
    12   106   105    1
    13   111   110    1
    14    62    63    2
    15    47    46    1
    16   114   113    1
    17   114   115    1
    18    45    46    1
    19    63    64    1
    20    63    65    1
    21    46    49    1
    22   110   113    1
    23   110   109    1
    24   105   102    1
    25   109   115    1
    26   109   103   am
    27   104   103    2
    28   103   102    1
    29    73    71    1
    30   102   101    1
    31    49    50    1
    32    71    72    1
    33    71    70    1
    34    50    52   ar
    35    50    51   ar
    36   101    99   am
    37    37    36    2
    38    52    54   ar
    39    51    53   ar
    40    66    67    1
    41   100    99    2
    42    54    53   ar
    43    70    67    1
    44    36    35    1
    45    99    98    1
    46    67    68    1
    47    35    34    1
    48    35    38    1
    49    40    42   ar
    50    40    39   ar
    51    42    44   ar
    52    98    97    1
    53    38    39    1
    54    39    41   ar
    55    68    69    2
    56    68    74   am
    57    44    43   ar
    58    97    87   am
    59    74    75    1
    60    41    43   ar
    61    17    16    1
    62    18    16    1
    63    87    88    2
    64    87    86    1
    65    85    86    1
    66    85    76   am
    67    16    13    1
    68    26    24    1
    69    75    76    1
    70    75    78    1
    71    89    86    1
    72    89    90    1
    73    91    93   ar
    74    91    90   ar
    75    76    77    2
    76    78    79    1
    77    93    95   ar
    78    90    92   ar
    79    24    25    1
    80    24    23    1
    81    13    12    1
    82    13    14    1
    83    12     3   am
    84    79    80    1
    85    14    15    2
    86    14    19   am
    87    95    96    1
    88    95    94   ar
    89     8    10   ar
    90     8     6   ar
    91    92    94   ar
    92     5     6    1
    93     5     2    1
    94    23    20    1
    95    19    20    1
    96    80    81    1
    97    81    82    2
    98    10    11   ar
    99     6     7   ar
   100     3     2    1
   101     3     4    2
   102    82    84    1
   103    82    83    1
   104     1     2    1
   105    20    21    1
   106    11     9   ar
   107     7     9   ar
   108    21    27   am
   109    21    22    2
   110    27    28    1
   111    28    29    1
   112    28    31    1
   113    33    31    1
   114    29    30    2
   115    31    32    1
