@<TRIPOS>MOLECULE
tmp/1exvB03.pdb
 127 127 0 0 0
SMALL
GASTEIGER

@<TRIPOS>ATOM
      1  N        100.9530   95.5240   64.4690 N.3    38  ARG38      -0.1245
      2  CA        99.5080   95.4320   64.2730 C.3    38  ARG38       0.1563
      3  C         98.8290   96.7980   64.0570 C.2    38  ARG38       0.2260
      4  O         97.8960   96.9280   63.2450 O.2    38  ARG38      -0.2867
      5  CB        98.8720   94.7250   65.4750 C.3    38  ARG38       0.0307
      6  CG        97.4470   94.2860   65.2520 C.3    38  ARG38       0.0489
      7  CD        96.8310   93.6460   66.4970 C.3    38  ARG38       0.2205
      8  NE        96.4600   94.6340   67.5070 N.pl3  38  ARG38      -0.0865
      9  CZ        95.9200   94.3310   68.6850 C.cat  38  ARG38       0.5346
     10  NH1       95.6910   93.0630   69.0090 N.pl3  38  ARG38       0.1354
     11  NH2       95.5790   95.2970   69.5260 N.pl3  38  ARG38       0.1354
     12  N         98.3330   98.2310   60.6520 N.3    41  LEU41      -0.1231
     13  CA        97.3430   97.5740   59.8160 C.3    41  LEU41       0.1693
     14  C         95.9690   98.2180   59.9040 C.2    41  LEU41       0.2591
     15  O         95.1870   98.1570   58.9540 O.2    41  LEU41      -0.2718
     16  CB        97.1950   96.1040   60.2240 C.3    41  LEU41       0.0284
     17  CG        98.2550   95.0890   59.8050 C.3    41  LEU41       0.0019
     18  CD1       98.0060   93.7870   60.5430 C.3    41  LEU41       0.0001
     19  CD2       98.2030   94.8700   58.3080 C.3    41  LEU41       0.0001
     20  N         95.6750   98.8310   61.0430 N.am   42  VAL42      -0.1980
     21  CA        94.3550   99.4140   61.2640 C.3    42  VAL42       0.1595
     22  C         93.8340  100.3560   60.1790 C.2    42  VAL42       0.2287
     23  O         92.7900  100.0950   59.5860 O.2    42  VAL42      -0.2864
     24  CB        94.2830  100.1280   62.6360 C.3    42  VAL42       0.0276
     25  CG1       92.8890  100.7060   62.8500 C.3    42  VAL42       0.0022
     26  CG2       94.6300   99.1430   63.7510 C.3    42  VAL42       0.0022
     27  N         93.1230   98.6190   56.9740 N.3    45  TRP45      -0.1241
     28  CA        92.0710   97.6260   57.1490 C.3    45  TRP45       0.1605
     29  C         90.6880   98.2530   57.1050 C.2    45  TRP45       0.2264
     30  O         89.7870   97.7430   56.4400 O.2    45  TRP45      -0.2867
     31  CB        92.2550   96.8690   58.4650 C.3    45  TRP45       0.0550
     32  CG        91.5500   95.5430   58.4720 C.ar   45  TRP45       0.0003
     33  CD1       91.0080   94.8900   57.3890 C.ar   45  TRP45       0.0946
     34  CD2       91.3980   94.6530   59.5880 C.ar   45  TRP45       0.0152
     35  NE1       90.5400   93.6520   57.7660 N.ar   45  TRP45      -0.2442
     36  CE2       90.7680   93.4790   59.1090 C.ar   45  TRP45       0.0810
     37  CE3       91.7360   94.7280   60.9470 C.ar   45  TRP45       0.0012
     38  CZ2       90.4750   92.3990   59.9350 C.ar   45  TRP45       0.0191
     39  CZ3       91.4410   93.6460   61.7710 C.ar   45  TRP45       0.0001
     40  CH2       90.8180   92.5000   61.2610 C.ar   45  TRP45       0.0015
     41  N         96.1230   85.6780   71.1200 N.3   165  ASN165     -0.1226
     42  CA        96.4090   85.8610   69.7030 C.3   165  ASN165      0.1770
     43  C         96.1090   87.3070   69.3640 C.2   165  ASN165      0.2439
     44  O         94.9520   87.7110   69.2830 O.2   165  ASN165     -0.2733
     45  CB        95.5500   84.8970   68.8650 C.3   165  ASN165      0.1168
     46  CG        95.5850   85.2040   67.3710 C.2   165  ASN165      0.2627
     47  OD1       96.5020   85.8530   66.8730 O.2   165  ASN165     -0.2716
     48  ND2       94.5820   84.7250   66.6550 N.am  165  ASN165     -0.0877
     49  N         97.1640   88.1160   69.1760 N.am  166  PRO166     -0.2718
     50  CA        97.0430   89.5360   68.8490 C.3   166  PRO166      0.1535
     51  C         96.5050   89.8090   67.4490 C.2   166  PRO166      0.2599
     52  O         95.9960   90.8990   67.1730 O.2   166  PRO166     -0.2715
     53  CB        98.4660   90.0470   69.0240 C.3   166  PRO166      0.0310
     54  CG        99.2810   88.8730   68.5800 C.3   166  PRO166      0.0237
     55  CD        98.5800   87.7120   69.2400 C.3   166  PRO166      0.0939
     56  N         96.5830   88.8040   66.5800 N.am  167  TRP167     -0.1960
     57  CA        96.1420   88.9580   65.1950 C.3   167  TRP167      0.1771
     58  C         94.6700   88.7050   64.9320 C.2   167  TRP167      0.2620
     59  O         94.2260   88.8040   63.7950 O.2   167  TRP167     -0.2715
     60  CB        96.9860   88.0610   64.2890 C.3   167  TRP167      0.0590
     61  CG        98.4460   88.1760   64.5990 C.ar  167  TRP167      0.0006
     62  CD1       99.2450   87.2190   65.1750 C.ar  167  TRP167      0.0946
     63  CD2       99.2830   89.3080   64.3730 C.ar  167  TRP167      0.0152
     64  NE1      100.5290   87.6900   65.3110 N.ar  167  TRP167     -0.2442
     65  CE2      100.5820   88.9710   64.8260 C.ar  167  TRP167      0.0810
     66  CE3       99.0680   90.5760   63.8280 C.ar  167  TRP167      0.0012
     67  CZ2      101.6570   89.8590   64.7450 C.ar  167  TRP167      0.0191
     68  CZ3      100.1460   91.4620   63.7490 C.ar  167  TRP167      0.0001
     69  CH2      101.4190   91.0970   64.2050 C.ar  167  TRP167      0.0015
     70  N         93.9100   88.3820   65.9690 N.am  168  GLU168     -0.1963
     71  CA        92.4900   88.1410   65.7830 C.3   168  GLU168      0.1733
     72  C         91.6700   89.2350   66.4610 C.2   168  GLU168      0.2616
     73  O         92.0710   89.7890   67.4890 O.2   168  GLU168     -0.2715
     74  CB        92.0890   86.7730   66.3500 C.3   168  GLU168      0.0429
     75  CG        92.0480   86.6870   67.8710 C.3   168  GLU168      0.1163
     76  CD        91.6150   85.3210   68.3530 C.2   168  GLU168      0.3649
     77  OE1       91.6700   84.3710   67.5500 O.co2 168  GLU168     -0.2457
     78  OE2       91.2310   85.1950   69.5360 O.co2 168  GLU168     -0.2457
     79  N         90.5250   89.5490   65.8700 N.am  169  LYS169     -0.1963
     80  CA        89.6470   90.5590   66.4320 C.3   169  LYS169      0.1728
     81  C         88.2400   90.0250   66.5470 C.2   169  LYS169      0.2616
     82  O         87.5930   89.7450   65.5410 O.2   169  LYS169     -0.2715
     83  CB        89.6210   91.8090   65.5550 C.3   169  LYS169      0.0311
     84  CG        88.6140   92.8410   66.0370 C.3   169  LYS169      0.0038
     85  CD        89.0700   93.5270   67.3280 C.3   169  LYS169      0.0206
     86  CE        88.0700   94.5930   67.8000 C.3   169  LYS169      0.1093
     87  NZ        86.8680   94.0140   68.5020 N.3   169  LYS169     -0.1314
     88  N         87.7710   89.8640   67.7730 N.am  170  SER170     -0.1950
     89  CA        86.4130   89.3890   68.0030 C.3   170  SER170      0.1924
     90  C         85.4550   90.4210   67.3900 C.2   170  SER170      0.2314
     91  O         85.6960   91.6390   67.4750 O.2   170  SER170     -0.2863
     92  CB        86.1650   89.2690   69.5060 C.3   170  SER170      0.2116
     93  OG        84.8010   89.0390   69.7900 O.3   170  SER170     -0.2180
     94  N         81.8940   90.6770   68.0810 N.3   172  PRO172     -0.2116
     95  CA        80.6610   90.3020   68.7850 C.3   172  PRO172      0.1372
     96  C         79.3480   90.7500   68.1530 C.2   172  PRO172      0.2244
     97  O         78.3470   90.0330   68.2290 O.2   172  PRO172     -0.2868
     98  CB        80.8780   90.8690   70.1890 C.3   172  PRO172      0.0268
     99  CG        81.7870   92.0500   69.9480 C.3   172  PRO172      0.0207
    100  CD        82.7650   91.5040   68.9430 C.3   172  PRO172      0.0892
    101  N         80.3580   82.9690   66.9230 N.3   202  LEU202     -0.1245
    102  CA        81.0130   84.2530   67.1630 C.3   202  LEU202      0.1561
    103  C         82.1930   84.3880   66.1920 C.2   202  LEU202      0.2260
    104  O         83.1710   83.6530   66.2790 O.2   202  LEU202     -0.2867
    105  CB        81.5030   84.3150   68.6100 C.3   202  LEU202      0.0270
    106  CG        82.2450   85.5680   69.0680 C.3   202  LEU202      0.0019
    107  CD1       81.3460   86.8020   68.9390 C.3   202  LEU202      0.0001
    108  CD2       82.6950   85.3710   70.5140 C.3   202  LEU202      0.0001
    109  N         85.5690   85.8300   64.3960 N.3   204  TYR204     -0.1241
    110  CA        86.8420   86.4420   64.7530 C.3   204  TYR204      0.1605
    111  C         87.5120   86.7880   63.4340 C.2   204  TYR204      0.2264
    112  O         87.7620   85.9060   62.6000 O.2   204  TYR204     -0.2867
    113  CB        87.7270   85.4610   65.5320 C.3   204  TYR204      0.0534
    114  CG        87.3590   85.3240   66.9830 C.ar  204  TYR204     -0.0201
    115  CD1       88.0420   86.0430   67.9690 C.ar  204  TYR204     -0.0009
    116  CD2       86.3060   84.5020   67.3750 C.ar  204  TYR204     -0.0009
    117  CE1       87.6800   85.9430   69.3190 C.ar  204  TYR204      0.0417
    118  CE2       85.9340   84.3990   68.7130 C.ar  204  TYR204      0.0417
    119  CZ        86.6260   85.1250   69.6780 C.ar  204  TYR204      0.1957
    120  OH        86.2390   85.0460   70.9890 O.3   204  TYR204     -0.2866
    121  N         93.2620   90.1910   59.8960 N.3   207  PRO207     -0.2116
    122  CA        93.6780   90.9820   58.7270 C.3   207  PRO207      0.1372
    123  C         94.5840   90.1870   57.7970 C.2   207  PRO207      0.2244
    124  O         95.3960   89.3840   58.2640 O.2   207  PRO207     -0.2868
    125  CB        94.3950   92.1790   59.3500 C.3   207  PRO207      0.0268
    126  CG        95.0140   91.5880   60.5780 C.3   207  PRO207      0.0207
    127  CD        93.8990   90.6900   61.1250 C.3   207  PRO207      0.0892
@<TRIPOS>BOND
     1    30    29    2
     2    27    28    1
     3    29    28    1
     4    28    31    1
     5    33    35   ar
     6    33    32   ar
     7    35    36   ar
     8   123   124    2
     9   123   122    1
    10    19    17    1
    11    31    32    1
    12    32    34   ar
    13   122   125    1
    14   122   121    1
    15    15    14    2
    16    36    34   ar
    17    36    38   ar
    18   125   126    1
    19    23    22    2
    20    34    37   ar
    21    17    16    1
    22    17    18    1
    23    13    14    1
    24    13    16    1
    25    13    12    1
    26   121   127    1
    27    14    20   am
    28    38    40   ar
    29    22    21    1
    30   126   127    1
    31    37    39   ar
    32    20    21    1
    33    40    39   ar
    34    21    24    1
    35   112   111    2
    36    24    25    1
    37    24    26    1
    38     4     3    2
    39   111   110    1
    40    68    66   ar
    41    68    69   ar
    42    59    58    2
    43    66    63   ar
    44     3     2    1
    45    69    67   ar
    46     2     1    1
    47     2     5    1
    48    60    61    1
    49    60    57    1
    50    63    61   ar
    51    63    65   ar
    52   109   110    1
    53    61    62   ar
    54    67    65   ar
    55   110   113    1
    56    65    64   ar
    57    58    57    1
    58    58    70   am
    59    62    64   ar
    60    57    56    1
    61     6     5    1
    62     6     7    1
    63   113   114    1
    64    82    81    2
    65    83    84    1
    66    83    80    1
    67    71    70    1
    68    71    74    1
    69    71    72    1
    70    79    80    1
    71    79    72   am
    72    84    85    1
    73   103   104    2
    74   103   102    1
    75    74    75    1
    76    80    81    1
    77    72    73    2
    78     7     8    1
    79    81    88   am
    80    56    51   am
    81    48    46   am
    82    47    46    2
    83   101   102    1
    84   114   116   ar
    85   114   115   ar
    86   102   105    1
    87    52    51    2
    88    85    86    1
    89    46    45    1
    90   116   118   ar
    91    90    91    2
    92    90    89    1
    93    51    50    1
    94     8     9    2
    95    77    76   ar
    96    88    89    1
    97    86    87    1
    98    75    76    1
    99   115   117   ar
   100    89    92    1
   101    94    95    1
   102    94   100    1
   103    96    97    2
   104    96    95    1
   105    76    78   ar
   106    54    53    1
   107    54    55    1
   108   105   106    1
   109     9    10    1
   110     9    11    1
   111   118   119   ar
   112    95    98    1
   113    50    53    1
   114    50    49    1
   115    45    42    1
   116   107   106    1
   117   100    99    1
   118   106   108    1
   119    49    55    1
   120    49    43   am
   121    44    43    2
   122   117   119   ar
   123    43    42    1
   124    92    93    1
   125   119   120    1
   126    42    41    1
   127    99    98    1
