@<TRIPOS>MOLECULE
tmp/1exwA01.pdb
 168 160 0 0 0
SMALL
GASTEIGER

@<TRIPOS>ATOM
      1  N         40.7670   16.2760   56.3620 N.3    13  GLY13      -0.1210
      2  CA        40.7220   14.8760   56.7310 C.3    13  GLY13       0.1956
      3  C         39.3240   14.4230   57.0980 C.2    13  GLY13       0.2611
      4  O         38.3620   15.1860   56.9800 O.2    13  GLY13      -0.2717
      5  N         39.2040   13.1820   57.5540 N.am   14  MET14      -0.1979
      6  CA        37.9030   12.6550   57.9220 C.3    14  MET14       0.1605
      7  C         37.3050   13.4080   59.0980 C.2    14  MET14       0.2287
      8  O         38.0240   13.8270   60.0010 O.2    14  MET14      -0.2864
      9  CB        38.0120   11.1730   58.2780 C.3    14  MET14       0.0413
     10  CG        38.4890   10.8870   59.6950 C.3    14  MET14       0.0598
     11  SD        38.4330    9.1240   60.0280 S.3    14  MET14      -0.1393
     12  CE        39.7600    8.9680   61.2060 C.3    14  MET14       0.0692
     13  N         45.5910   14.3560   56.8240 N.3    88  SER88      -0.1202
     14  CA        45.1330   13.0010   57.0660 C.3    88  SER88       0.2020
     15  C         44.7780   12.3030   55.7510 C.2    88  SER88       0.2618
     16  O         45.5710   12.3300   54.8110 O.2    88  SER88      -0.2717
     17  CB        43.9300   13.0110   57.9910 C.3    88  SER88       0.2103
     18  OG        43.9760   11.8670   58.8000 O.3    88  SER88      -0.2182
     19  N         43.6010   11.6840   55.6730 N.am   89  GLN89      -0.1979
     20  CA        43.2240   10.9810   54.4460 C.3    89  GLN89       0.1601
     21  C         43.2210   11.9340   53.2600 C.2    89  GLN89       0.2287
     22  O         43.2690   11.5040   52.1100 O.2    89  GLN89      -0.2864
     23  CB        41.8550   10.2990   54.5780 C.3    89  GLN89       0.0394
     24  CG        40.6740   11.2370   54.6960 C.3    89  GLN89       0.0908
     25  CD        39.4180   10.5120   55.1430 C.2    89  GLN89       0.2608
     26  OE1       39.4830    9.3900   55.6320 O.2    89  GLN89      -0.2717
     27  NE2       38.2720   11.1520   54.9770 N.am   89  GLN89      -0.0878
     28  N         47.9480    8.5740   54.7240 N.3   115  GLN115     -0.1245
     29  CA        48.1390    7.1350   54.7750 C.3   115  GLN115      0.1566
     30  C         48.3310    6.5780   53.3560 C.2   115  GLN115      0.2260
     31  O         47.4030    6.0230   52.7560 O.2   115  GLN115     -0.2867
     32  CB        46.9330    6.4800   55.4620 C.3   115  GLN115      0.0367
     33  CG        46.5990    7.0510   56.8410 C.3   115  GLN115      0.0905
     34  CD        45.5730    8.1840   56.8020 C.2   115  GLN115      0.2608
     35  OE1       44.4500    8.0040   56.3480 O.2   115  GLN115     -0.2717
     36  NE2       45.9560    9.3470   57.2980 N.am  115  GLN115     -0.0878
     37  N         45.7760    1.6690   56.0100 N.3   119  VAL119     -0.1245
     38  CA        45.8870    1.3110   57.4240 C.3   119  VAL119      0.1561
     39  C         45.4370   -0.1200   57.7130 C.2   119  VAL119      0.2260
     40  O         44.7070   -0.7250   56.9310 O.2   119  VAL119     -0.2867
     41  CB        45.0500    2.2620   58.3330 C.3   119  VAL119      0.0252
     42  CG1       45.4760    3.7040   58.1130 C.3   119  VAL119      0.0019
     43  CG2       43.5640    2.0850   58.0780 C.3   119  VAL119      0.0019
     44  N         44.5570   -1.3860   61.4190 N.3   121  GLY121     -0.1210
     45  CA        44.4730   -1.3180   62.8640 C.3   121  GLY121      0.1956
     46  C         43.5180   -0.2030   63.2340 C.2   121  GLY121      0.2612
     47  O         43.2900    0.7170   62.4400 O.2   121  GLY121     -0.2717
     48  N         42.9450   -0.2820   64.4310 N.am  122  LEU122     -0.1966
     49  CA        42.0140    0.7410   64.8820 C.3   122  LEU122      0.1713
     50  C         42.7300    1.7770   65.7230 C.2   122  LEU122      0.2458
     51  O         43.7430    1.4930   66.3540 O.2   122  LEU122     -0.2730
     52  CB        40.8820    0.1260   65.7070 C.3   122  LEU122      0.0310
     53  CG        39.9020   -0.8200   65.0170 C.3   122  LEU122      0.0022
     54  CD1       39.1430   -0.0970   63.9120 C.3   122  LEU122      0.0001
     55  CD2       40.6760   -1.9880   64.4580 C.3   122  LEU122      0.0001
     56  N         42.2200    3.0110   65.7180 N.am  123  PRO123     -0.2727
     57  CA        42.8200    4.0930   66.4990 C.3   123  PRO123      0.1402
     58  C         42.9150    3.7360   67.9900 C.2   123  PRO123      0.2269
     59  O         41.9360    3.2970   68.5830 O.2   123  PRO123     -0.2865
     60  CB        41.8680    5.2540   66.2350 C.3   123  PRO123      0.0296
     61  CG        41.4580    5.0110   64.8100 C.3   123  PRO123      0.0237
     62  CD        41.2220    3.5320   64.7610 C.3   123  PRO123      0.0939
     63  N         37.9600   -8.0100   60.3590 N.3   140  LEU140     -0.1245
     64  CA        37.2170   -7.0400   59.5680 C.3   140  LEU140      0.1561
     65  C         37.5160   -7.1460   58.0830 C.2   140  LEU140      0.2260
     66  O         36.9850   -6.3750   57.2850 O.2   140  LEU140     -0.2867
     67  CB        37.4950   -5.6210   60.0700 C.3   140  LEU140      0.0270
     68  CG        36.4170   -5.0550   61.0020 C.3   140  LEU140      0.0019
     69  CD1       36.0650   -6.0840   62.0480 C.3   140  LEU140      0.0001
     70  CD2       36.9110   -3.7680   61.6510 C.3   140  LEU140      0.0001
     71  N         34.5070   -7.9680   56.0220 N.3   143  GLY143     -0.1210
     72  CA        33.6710   -6.7890   56.0470 C.3   143  GLY143      0.1956
     73  C         34.2080   -5.7270   55.1020 C.2   143  GLY143      0.2611
     74  O         33.5510   -5.3560   54.1250 O.2   143  GLY143     -0.2717
     75  N         35.4200   -5.2540   55.3870 N.am  144  ALA144     -0.1979
     76  CA        36.0700   -4.2160   54.5940 C.3   144  ALA144      0.1597
     77  C         36.1410   -4.5170   53.1010 C.2   144  ALA144      0.2287
     78  O         36.0080   -3.6090   52.2730 O.2   144  ALA144     -0.2864
     79  CB        37.4800   -3.9500   55.1370 C.3   144  ALA144      0.0319
     80  N         30.1470   -2.6570   50.9780 N.3   149  ILE149     -0.1245
     81  CA        30.8130   -1.8480   52.0050 C.3   149  ILE149      0.1561
     82  C         31.9730   -1.0710   51.3880 C.2   149  ILE149      0.2260
     83  O         32.1690    0.1150   51.6680 O.2   149  ILE149     -0.2867
     84  CB        31.3790   -2.7440   53.1390 C.3   149  ILE149      0.0252
     85  CG1       30.2360   -3.3100   53.9830 C.3   149  ILE149      0.0019
     86  CG2       32.3290   -1.9470   54.0180 C.3   149  ILE149      0.0019
     87  CD1       29.4580   -2.2570   54.7710 C.3   149  ILE149      0.0001
     88  N         31.8210    3.1030   52.0600 N.3   153  LEU153     -0.1245
     89  CA        32.6370    3.4930   53.2050 C.3   153  LEU153      0.1561
     90  C         34.0310    3.9800   52.7960 C.2   153  LEU153      0.2260
     91  O         34.8230    3.2300   52.2230 O.2   153  LEU153     -0.2867
     92  CB        32.7580    2.3190   54.1630 C.3   153  LEU153      0.0270
     93  CG        33.3910    2.5970   55.5220 C.3   153  LEU153      0.0019
     94  CD1       32.7400    3.7910   56.1910 C.3   153  LEU153      0.0001
     95  CD2       33.2290    1.3600   56.3800 C.3   153  LEU153      0.0001
     96  N         36.8370    4.9700   54.6760 N.3   155  GLN155     -0.1231
     97  CA        37.9580    4.3220   55.3520 C.3   155  GLN155      0.1698
     98  C         38.2090    2.8800   54.8690 C.2   155  GLN155      0.2592
     99  O         39.3510    2.4030   54.8780 O.2   155  GLN155     -0.2718
    100  CB        37.7590    4.3500   56.8780 C.3   155  GLN155      0.0381
    101  CG        37.8540    5.7450   57.5120 C.3   155  GLN155      0.0905
    102  CD        36.7590    6.7010   57.0230 C.2   155  GLN155      0.2608
    103  OE1       35.5980    6.3080   56.8990 O.2   155  GLN155     -0.2717
    104  NE2       37.1210    7.9540   56.7600 N.am  155  GLN155     -0.0878
    105  N         37.1580    2.1910   54.4320 N.am  156  ALA156     -0.1980
    106  CA        37.3400    0.8290   53.9470 C.3   156  ALA156      0.1597
    107  C         38.1730    0.8240   52.6640 C.2   156  ALA156      0.2287
    108  O         38.9130   -0.1280   52.3990 O.2   156  ALA156     -0.2864
    109  CB        35.9840    0.1680   53.6890 C.3   156  ALA156      0.0319
    110  N         40.7690    2.3430   51.9170 N.3   158  TYR158     -0.1227
    111  CA        42.2080    2.4300   52.0800 C.3   158  TYR158      0.1736
    112  C         42.6630    1.5360   53.2330 C.2   158  TYR158      0.2595
    113  O         43.7330    1.7140   53.8080 O.2   158  TYR158     -0.2718
    114  CB        42.7080    3.8900   52.2080 C.3   158  TYR158      0.0548
    115  CG        42.1960    4.7370   53.3600 C.ar  158  TYR158     -0.0200
    116  CD1       42.6960    4.5790   54.6450 C.ar  158  TYR158     -0.0009
    117  CD2       41.2720    5.7590   53.1400 C.ar  158  TYR158     -0.0009
    118  CE1       42.2920    5.4230   55.6770 C.ar  158  TYR158      0.0417
    119  CE2       40.8680    6.5930   54.1550 C.ar  158  TYR158      0.0417
    120  CZ        41.3820    6.4230   55.4200 C.ar  158  TYR158      0.1957
    121  OH        40.9730    7.2510   56.4260 O.3   158  TYR158     -0.2866
    122  N         41.8290    0.5460   53.5400 N.am  159  TRP159     -0.1976
    123  CA        42.1270   -0.4320   54.5750 C.3   159  TRP159      0.1640
    124  C         43.0080   -1.4210   53.8240 C.2   159  TRP159      0.2290
    125  O         42.6270   -1.9420   52.7820 O.2   159  TRP159     -0.2864
    126  CB        40.8280   -1.0720   55.0880 C.3   159  TRP159      0.0576
    127  CG        41.0110   -2.1140   56.1610 C.ar  159  TRP159      0.0006
    128  CD1       41.0910   -3.4630   55.9800 C.ar  159  TRP159      0.0946
    129  CD2       41.1560   -1.8910   57.5770 C.ar  159  TRP159      0.0152
    130  NE1       41.2750   -4.1010   57.1910 N.ar  159  TRP159     -0.2442
    131  CE2       41.3170   -3.1600   58.1870 C.ar  159  TRP159      0.0810
    132  CE3       41.1630   -0.7480   58.3860 C.ar  159  TRP159      0.0012
    133  CZ2       41.4860   -3.3150   59.5720 C.ar  159  TRP159      0.0191
    134  CZ3       41.3300   -0.8990   59.7590 C.ar  159  TRP159      0.0001
    135  CH2       41.4880   -2.1780   60.3390 C.ar  159  TRP159      0.0015
    136  N         46.5780    7.2250   66.0800 N.3   208  ILE208     -0.1231
    137  CA        45.3960    7.0700   65.2590 C.3   208  ILE208      0.1692
    138  C         45.6940    6.2440   64.0070 C.2   208  ILE208      0.2591
    139  O         44.8620    5.4290   63.6090 O.2   208  ILE208     -0.2718
    140  CB        44.8510    8.4330   64.8310 C.3   208  ILE208      0.0266
    141  CG1       44.6130    9.3080   66.0580 C.3   208  ILE208      0.0019
    142  CG2       43.5690    8.2590   64.0700 C.3   208  ILE208      0.0020
    143  CD1       43.6420    8.7130   67.0640 C.3   208  ILE208      0.0001
    144  N         46.8740    6.4500   63.3990 N.am  209  VAL209     -0.1980
    145  CA        47.2880    5.7380   62.1740 C.3   209  VAL209      0.1595
    146  C         48.1680    4.5210   62.4380 C.2   209  VAL209      0.2287
    147  O         49.3070    4.6430   62.8810 O.2   209  VAL209     -0.2864
    148  CB        48.0570    6.6700   61.1930 C.3   209  VAL209      0.0276
    149  CG1       48.4940    5.8920   59.9710 C.3   209  VAL209      0.0022
    150  CG2       47.1840    7.8260   60.7750 C.3   209  VAL209      0.0022
    151  N         48.5110   12.3450   66.2240 N.3   262  HIS262     -0.1226
    152  CA        48.0000   12.7420   64.9170 C.3   262  HIS262      0.1752
    153  C         47.6370   14.2120   64.8150 C.2   262  HIS262      0.2595
    154  O         46.9960   14.7970   65.6990 O.2   262  HIS262     -0.2718
    155  CB        46.6930   12.1020   64.4900 C.3   262  HIS262      0.0759
    156  CG        46.4340   12.4490   62.9950 C.ar  262  HIS262      0.0818
    157  ND1       47.0480   11.7520   61.9710 N.ar  262  HIS262     -0.2268
    158  CD2       45.6510   13.3720   62.3890 C.ar  262  HIS262      0.1154
    159  CE1       46.6530   12.2310   60.8090 C.ar  262  HIS262      0.1986
    160  NE2       45.8060   13.2140   61.0320 N.ar  262  HIS262     -0.2212
    161  N         48.0680   14.8070   63.7220 N.am  263  LEU263     -0.1980
    162  CA        47.7840   16.2140   63.4320 C.3   263  LEU263      0.1596
    163  C         48.0790   17.1890   64.5840 C.2   263  LEU263      0.2287
    164  O         47.3390   18.1630   64.7740 O.2   263  LEU263     -0.2864
    165  CB        46.3280   16.3520   63.0050 C.3   263  LEU263      0.0297
    166  CG        45.8840   15.6190   61.7440 C.3   263  LEU263      0.0022
    167  CD1       44.4170   15.8630   61.4570 C.3   263  LEU263      0.0001
    168  CD2       46.7270   16.0330   60.5410 C.3   263  LEU263      0.0001
@<TRIPOS>BOND
     1    80    81    1
     2    82    83    2
     3    82    81    1
     4   110   111    1
     5    81    84    1
     6    88    89    1
     7   111   114    1
     8   111   112    1
     9    22    21    2
    10   114   115    1
    11    91    90    2
    12    78    77    2
    13   108   107    2
    14   107   106    1
    15    31    30    2
    16   125   124    2
    17    90    89    1
    18    77    76    1
    19    84    85    1
    20    84    86    1
    21   117   115   ar
    22   117   119   ar
    23    89    92    1
    24   112   122   am
    25   112   113    2
    26    21    20    1
    27    30    29    1
    28   115   116   ar
    29   122   123    1
    30   109   106    1
    31   124   123    1
    32   106   105    1
    33    85    87    1
    34    74    73    2
    35   119   120   ar
    36    92    93    1
    37   105    98   am
    38    20    23    1
    39    20    19    1
    40   123   126    1
    41    23    24    1
    42    76    79    1
    43    76    75    1
    44   116   118   ar
    45    96    97    1
    46    24    25    1
    47    28    29    1
    48    29    32    1
    49    16    15    2
    50    98    99    2
    51    98    97    1
    52    27    25   am
    53   126   127    1
    54    73    75   am
    55    73    72    1
    56    25    26    2
    57    97   100    1
    58   120   118   ar
    59   120   121    1
    60    32    33    1
    61    93    94    1
    62    93    95    1
    63    19    15   am
    64    15    14    1
    65   128   127   ar
    66   128   130   ar
    67    37    38    1
    68    71    72    1
    69   127   129   ar
    70    35    34    2
    71     1     2    1
    72     2     3    1
    73   104   102   am
    74    34    33    1
    75    34    36   am
    76    13    14    1
    77   100   101    1
    78   103   102    2
    79    40    39    2
    80     4     3    2
    81   102   101    1
    82    14    17    1
    83     3     5   am
    84   130   131   ar
    85    66    65    2
    86    38    39    1
    87    38    41    1
    88     5     6    1
    89   129   131   ar
    90   129   132   ar
    91     6     9    1
    92     6     7    1
    93    17    18    1
    94    43    41    1
    95    65    64    1
    96    42    41    1
    97   131   133   ar
    98     9    10    1
    99   132   134   ar
   100     7     8    2
   101    64    67    1
   102    64    63    1
   103   133   135   ar
   104    10    11    1
   105   134   135   ar
   106   149   148    1
   107    11    12    1
   108    67    68    1
   109   168   166    1
   110   150   148    1
   111   159   160   ar
   112   159   157   ar
   113    68    70    1
   114    68    69    1
   115   160   158   ar
   116   148   145    1
   117    44    45    1
   118   167   166    1
   119   166   165    1
   120   157   156   ar
   121   145   146    1
   122   145   144    1
   123   158   156   ar
   124   146   147    2
   125    47    46    2
   126    45    46    1
   127   156   155    1
   128   165   162    1
   129    46    48   am
   130   144   138   am
   131   162   161    1
   132   162   163    1
   133   139   138    2
   134   161   153   am
   135    54    53    1
   136   138   137    1
   137   142   140    1
   138    48    49    1
   139    55    53    1
   140   155   152    1
   141   163   164    2
   142    62    61    1
   143    62    56    1
   144    61    60    1
   145   153   152    1
   146   153   154    2
   147   140   137    1
   148   140   141    1
   149    49    52    1
   150    49    50    1
   151   152   151    1
   152    53    52    1
   153   137   136    1
   154    56    50   am
   155    56    57    1
   156    50    51    2
   157   141   143    1
   158    60    57    1
   159    57    58    1
   160    58    59    2
