@<TRIPOS>MOLECULE
tmp/1exxA00.pdb
 192 181 0 0 0
SMALL
GASTEIGER

@<TRIPOS>ATOM
      1  N         32.8090   18.0370   96.7580 N.3    20  PHE20      -0.1241
      2  CA        32.3760   17.3700   95.5290 C.3    20  PHE20       0.1605
      3  C         30.8580   17.2180   95.4870 C.2    20  PHE20       0.2264
      4  O         30.3080   16.2590   96.0210 O.2    20  PHE20      -0.2867
      5  CB        33.0070   15.9790   95.3640 C.3    20  PHE20       0.0534
      6  CG        32.9910   15.5050   93.9010 C.ar   20  PHE20      -0.0203
      7  CD1       32.3150   14.3560   93.5180 C.ar   20  PHE20      -0.0042
      8  CD2       33.6580   16.1960   92.9130 C.ar   20  PHE20      -0.0042
      9  CE1       32.3030   13.9150   92.2040 C.ar   20  PHE20      -0.0003
     10  CE2       33.6560   15.7720   91.6020 C.ar   20  PHE20      -0.0003
     11  CZ        32.9920   14.6090   91.2240 C.ar   20  PHE20      -0.0000
     12  N         38.5950   21.2760   75.3280 N.3    46  TRP46      -0.1241
     13  CA        39.7790   21.0660   76.1560 C.3    46  TRP46       0.1605
     14  C         39.9030   22.2030   77.1590 C.2    46  TRP46       0.2264
     15  O         40.2240   22.0050   78.3370 O.2    46  TRP46      -0.2867
     16  CB        41.0630   20.9390   75.3000 C.3    46  TRP46       0.0550
     17  CG        42.2990   21.2110   76.1050 C.ar   46  TRP46       0.0003
     18  CD1       43.1230   22.2930   76.0120 C.ar   46  TRP46       0.0946
     19  CD2       42.8410   20.3640   77.1450 C.ar   46  TRP46       0.0152
     20  NE1       44.1490   22.1810   76.9220 N.ar   46  TRP46      -0.2442
     21  CE2       43.9900   21.0040   77.6290 C.ar   46  TRP46       0.0810
     22  CE3       42.4350   19.1350   77.6910 C.ar   46  TRP46       0.0012
     23  CZ2       44.7700   20.4640   78.6510 C.ar   46  TRP46       0.0191
     24  CZ3       43.2160   18.5970   78.7070 C.ar   46  TRP46       0.0001
     25  CH2       44.3650   19.2610   79.1730 C.ar   46  TRP46       0.0015
     26  N         37.2290   21.8170   79.8720 N.3    49  PHE49      -0.1241
     27  CA        37.5590   20.6210   80.6630 C.3    49  PHE49       0.1605
     28  C         38.7260   20.8710   81.6150 C.2    49  PHE49       0.2264
     29  O         38.7070   20.5640   82.8220 O.2    49  PHE49      -0.2867
     30  CB        37.8860   19.4270   79.7220 C.3    49  PHE49       0.0534
     31  CG        38.5410   18.2740   80.5010 C.ar   49  PHE49      -0.0203
     32  CD1       37.8160   17.4970   81.3790 C.ar   49  PHE49      -0.0042
     33  CD2       39.8910   18.0220   80.3340 C.ar   49  PHE49      -0.0042
     34  CE1       38.4700   16.5010   82.0950 C.ar   49  PHE49      -0.0003
     35  CE2       40.5780   17.0320   81.0310 C.ar   49  PHE49      -0.0003
     36  CZ        39.8170   16.2800   81.9200 C.ar   49  PHE49      -0.0000
     37  N         38.0740   23.0130   84.5740 N.3    52  LEU52      -0.1231
     38  CA        37.3000   22.2960   85.5720 C.3    52  LEU52       0.1693
     39  C         38.2010   21.2960   86.2980 C.2    52  LEU52       0.2591
     40  O         38.1060   21.1540   87.5140 O.2    52  LEU52      -0.2718
     41  CB        36.1030   21.5610   84.9490 C.3    52  LEU52       0.0284
     42  CG        35.0180   22.5420   84.4460 C.3    52  LEU52       0.0019
     43  CD1       34.1190   21.8500   83.4370 C.3    52  LEU52       0.0001
     44  CD2       34.2670   23.0890   85.6500 C.3    52  LEU52       0.0001
     45  N         39.0940   20.6350   85.5810 N.am   53  ALA53      -0.1980
     46  CA        40.0620   19.7460   86.2200 C.3    53  ALA53       0.1597
     47  C         40.9090   20.5060   87.2380 C.2    53  ALA53       0.2287
     48  O         41.1340   20.0480   88.3530 O.2    53  ALA53      -0.2864
     49  CB        40.9390   19.0790   85.1650 C.3    53  ALA53       0.0319
     50  N         38.9710   21.1240   90.3100 N.3    56  CYS56      -0.1235
     51  CA        38.7230   19.9310   91.1340 C.3    56  CYS56       0.1677
     52  C         40.0030   19.5310   91.8570 C.2    56  CYS56       0.2270
     53  O         39.9600   18.9830   92.9510 O.2    56  CYS56      -0.2867
     54  CB        38.1550   18.8210   90.2300 C.3    56  CYS56       0.0956
     55  SG        37.4550   17.4820   91.2440 S.3    56  CYS56      -0.0801
     56  N         45.3500   12.0310   90.4410 N.3    87  LEU87      -0.1245
     57  CA        44.6880   11.6110   89.2020 C.3    87  LEU87       0.1561
     58  C         43.7570   10.4440   89.4720 C.2    87  LEU87       0.2260
     59  O         42.6820   10.3960   88.8810 O.2    87  LEU87      -0.2867
     60  CB        45.7170   11.2700   88.1240 C.3    87  LEU87       0.0270
     61  CG        45.2160   11.0130   86.6980 C.3    87  LEU87       0.0019
     62  CD1       44.2510   12.0930   86.2530 C.3    87  LEU87       0.0001
     63  CD2       46.4100   10.8900   85.7390 C.3    87  LEU87       0.0001
     64  N         40.5900   12.0070   90.8840 N.3    90  LEU90      -0.1231
     65  CA        39.8350   12.6580   89.8010 C.3    90  LEU90       0.1693
     66  C         39.1120   11.6340   88.9370 C.2    90  LEU90       0.2591
     67  O         37.9550   11.8340   88.5540 O.2    90  LEU90      -0.2718
     68  CB        40.7810   13.4840   88.9210 C.3    90  LEU90       0.0284
     69  CG        41.3230   14.7890   89.5130 C.3    90  LEU90       0.0019
     70  CD1       42.4360   15.2830   88.6030 C.3    90  LEU90       0.0001
     71  CD2       40.2160   15.8250   89.6480 C.3    90  LEU90       0.0001
     72  N         39.8240   10.5620   88.6000 N.am   91  MET91      -0.1979
     73  CA        39.1610    9.5350   87.7620 C.3    91  MET91       0.1605
     74  C         37.9510    8.9420   88.4890 C.2    91  MET91       0.2287
     75  O         36.8920    8.7260   87.8930 O.2    91  MET91      -0.2864
     76  CB        40.1170    8.4040   87.3810 C.3    91  MET91       0.0413
     77  CG        41.2570    8.8940   86.4690 C.3    91  MET91       0.0598
     78  SD        40.5850    9.3880   84.8400 S.3    91  MET91      -0.1393
     79  CE        42.1190    9.4470   83.8950 C.3    91  MET91       0.0692
     80  N         36.1500   10.4570   90.8480 N.3    93  ARG93      -0.1231
     81  CA        35.1870   11.5340   90.9680 C.3    93  ARG93       0.1694
     82  C         34.3970   11.6480   89.6810 C.2    93  ARG93       0.2591
     83  O         33.1680   11.5890   89.6960 O.2    93  ARG93      -0.2718
     84  CB        35.9230   12.8500   91.3140 C.3    93  ARG93       0.0321
     85  CG        36.1520   13.0180   92.8060 C.3    93  ARG93       0.0489
     86  CD        36.8750   14.3010   93.2080 C.3    93  ARG93       0.2205
     87  NE        36.8250   14.3620   94.6970 N.pl3  93  ARG93      -0.0865
     88  CZ        36.7750   15.5070   95.3640 C.cat  93  ARG93       0.5346
     89  NH1       36.7940   16.6580   94.7020 N.pl3  93  ARG93       0.1354
     90  NH2       36.7130   15.5510   96.6860 N.pl3  93  ARG93       0.1354
     91  N         35.0420   11.7780   88.5250 N.am   94  ILE94      -0.1980
     92  CA        34.1990   12.0260   87.3270 C.3    94  ILE94       0.1595
     93  C         33.3890   10.7970   86.9980 C.2    94  ILE94       0.2287
     94  O         32.2500   10.9250   86.5300 O.2    94  ILE94      -0.2864
     95  CB        35.0690   12.5080   86.1540 C.3    94  ILE94       0.0276
     96  CG1       34.2590   13.0650   84.9630 C.3    94  ILE94       0.0022
     97  CG2       36.0370   11.4410   85.6580 C.3    94  ILE94       0.0022
     98  CD1       33.3260   14.1980   85.3660 C.3    94  ILE94       0.0001
     99  N         30.3120   17.6690   85.2590 N.3   107  PHE107     -0.1241
    100  CA        31.3800   18.3340   85.9870 C.3   107  PHE107      0.1605
    101  C         30.7920   19.1960   87.1000 C.2   107  PHE107      0.2264
    102  O         29.5530   19.2910   87.1820 O.2   107  PHE107     -0.2867
    103  CB        32.2490   19.1680   85.0470 C.3   107  PHE107      0.0534
    104  CG        32.9220   18.2760   84.0000 C.ar  107  PHE107     -0.0203
    105  CD1       32.3020   17.9670   82.8140 C.ar  107  PHE107     -0.0042
    106  CD2       34.1780   17.7640   84.2720 C.ar  107  PHE107     -0.0042
    107  CE1       32.9370   17.1070   81.9130 C.ar  107  PHE107     -0.0003
    108  CE2       34.8160   16.9120   83.3830 C.ar  107  PHE107     -0.0003
    109  CZ        34.1920   16.5910   82.1840 C.ar  107  PHE107     -0.0000
    110  N         39.5830   15.7740   74.9340 N.3   122  GLY122     -0.1210
    111  CA        40.9370   15.2970   75.1170 C.3   122  GLY122      0.1956
    112  C         41.0770   13.8620   75.5650 C.2   122  GLY122      0.2611
    113  O         42.1870   13.3170   75.4860 O.2   122  GLY122     -0.2717
    114  N         40.0000   13.2150   76.0040 N.am  123  PHE123     -0.1976
    115  CA        40.1040   11.8420   76.4930 C.3   123  PHE123      0.1639
    116  C         40.5850   10.9460   75.3470 C.2   123  PHE123      0.2290
    117  O         41.3500    9.9910   75.5490 O.2   123  PHE123     -0.2864
    118  CB        38.7920   11.2960   77.0560 C.3   123  PHE123      0.0560
    119  CG        38.4400   11.7320   78.4810 C.ar  123  PHE123     -0.0200
    120  CD1       38.1990   13.0540   78.7860 C.ar  123  PHE123     -0.0042
    121  CD2       38.3600   10.8120   79.5140 C.ar  123  PHE123     -0.0042
    122  CE1       37.8840   13.4600   80.0760 C.ar  123  PHE123     -0.0003
    123  CE2       38.0300   11.2060   80.8120 C.ar  123  PHE123     -0.0003
    124  CZ        37.8100   12.5430   81.1140 C.ar  123  PHE123     -0.0000
    125  N         41.0230    7.0180   75.1990 N.3   126  LEU126     -0.1245
    126  CA        40.8320    6.6030   76.5780 C.3   126  LEU126      0.1561
    127  C         39.3660    6.6990   76.9690 C.2   126  LEU126      0.2260
    128  O         38.9150    6.1500   77.9750 O.2   126  LEU126     -0.2867
    129  CB        41.6660    7.5020   77.4940 C.3   126  LEU126      0.0270
    130  CG        41.6960    7.1550   78.9780 C.3   126  LEU126      0.0019
    131  CD1       42.1500    5.7090   79.1460 C.3   126  LEU126      0.0001
    132  CD2       42.5800    8.1200   79.7380 C.3   126  LEU126      0.0001
    133  N         45.6220    7.5690   81.5780 N.3   212  GLY212     -0.1225
    134  CA        45.3780    8.9980   81.4110 C.3   212  GLY212      0.1811
    135  C         46.6530    9.8180   81.4080 C.2   212  GLY212      0.2280
    136  O         46.7150   10.7920   80.6590 O.2   212  GLY212     -0.2866
    137  N         48.0190    9.3560   78.0380 N.3   215  ARG215     -0.1231
    138  CA        47.2850   10.2330   77.1170 C.3   215  ARG215      0.1694
    139  C         47.6900   11.6790   77.3040 C.2   215  ARG215      0.2591
    140  O         47.7760   12.4240   76.3080 O.2   215  ARG215     -0.2718
    141  CB        45.7690   10.0100   77.2610 C.3   215  ARG215      0.0321
    142  CG        44.9150   10.9930   76.4640 C.3   215  ARG215      0.0489
    143  CD        45.1500   10.8860   74.9550 C.3   215  ARG215      0.2205
    144  NE        44.2780   11.8450   74.2610 N.pl3 215  ARG215     -0.0865
    145  CZ        44.4690   12.3550   73.0510 C.cat 215  ARG215      0.5346
    146  NH1       45.5240   12.0250   72.3310 N.pl3 215  ARG215      0.1354
    147  NH2       43.6040   13.2150   72.5400 N.pl3 215  ARG215      0.1354
    148  N         47.9460   12.1610   78.5160 N.am  216  ALA216     -0.1980
    149  CA        48.3600   13.5450   78.7050 C.3   216  ALA216      0.1597
    150  C         49.5940   13.8850   77.8510 C.2   216  ALA216      0.2287
    151  O         49.6660   14.9930   77.3110 O.2   216  ALA216     -0.2864
    152  CB        48.6820   13.8820   80.1520 C.3   216  ALA216      0.0319
    153  N         48.5440   14.3490   74.2320 N.3   219  LEU219     -0.1245
    154  CA        47.6610   15.5230   74.0900 C.3   219  LEU219      0.1561
    155  C         48.4660   16.7920   74.1190 C.2   219  LEU219      0.2260
    156  O         48.1220   17.8470   73.5700 O.2   219  LEU219     -0.2867
    157  CB        46.6100   15.4350   75.1970 C.3   219  LEU219      0.0270
    158  CG        45.5030   16.4530   75.3440 C.3   219  LEU219      0.0019
    159  CD1       44.6980   16.5790   74.0610 C.3   219  LEU219      0.0001
    160  CD2       44.6430   16.0540   76.5560 C.3   219  LEU219      0.0001
    161  N         49.8390   22.5030   79.4480 N.3   227  MET227     -0.1245
    162  CA        48.6450   22.2640   80.2630 C.3   227  MET227      0.1570
    163  C         48.6520   23.2000   81.4680 C.2   227  MET227      0.2261
    164  O         49.6880   23.7790   81.8020 O.2   227  MET227     -0.2867
    165  CB        48.5920   20.7900   80.6940 C.3   227  MET227      0.0387
    166  CG        48.2790   19.8770   79.4980 C.3   227  MET227      0.0595
    167  SD        48.0860   18.1980   80.1060 S.3   227  MET227     -0.1393
    168  CE        47.5790   17.3430   78.6090 C.3   227  MET227      0.0692
    169  N         47.6970   20.9860   86.7730 N.3   231  ILE231     -0.1245
    170  CA        47.6560   19.6770   86.0920 C.3   231  ILE231      0.1561
    171  C         49.0860   19.2010   85.9060 C.2   231  ILE231      0.2260
    172  O         49.4590   18.0690   86.1490 O.2   231  ILE231     -0.2867
    173  CB        46.8820   19.7730   84.7670 C.3   231  ILE231      0.0252
    174  CG1       45.3790   19.9210   85.0700 C.3   231  ILE231      0.0019
    175  CG2       47.1650   18.5770   83.8460 C.3   231  ILE231      0.0019
    176  CD1       44.5700   20.2100   83.8000 C.3   231  ILE231      0.0001
    177  N         50.3890   17.7150   89.0560 N.3   234  MET234     -0.1230
    178  CA        49.8710   16.3620   89.2480 C.3   234  MET234      0.1702
    179  C         50.6240   15.3640   88.4070 C.2   234  MET234      0.2592
    180  O         50.8490   14.2350   88.8650 O.2   234  MET234     -0.2718
    181  CB        48.3510   16.4070   88.9470 C.3   234  MET234      0.0401
    182  CG        47.7450   15.0270   88.7360 C.3   234  MET234      0.0596
    183  SD        45.9550   15.1520   88.5700 S.3   234  MET234     -0.1393
    184  CE        45.8520   15.6250   86.8110 C.3   234  MET234      0.0692
    185  N         50.9980   15.7410   87.1820 N.am  235  LEU235     -0.1980
    186  CA        51.5200   14.7670   86.2260 C.3   235  LEU235      0.1596
    187  C         53.0280   14.6190   86.3840 C.2   235  LEU235      0.2287
    188  O         53.6500   13.7650   85.7510 O.2   235  LEU235     -0.2864
    189  CB        51.1870   15.1570   84.7870 C.3   235  LEU235      0.0297
    190  CG        49.6870   15.1200   84.4350 C.3   235  LEU235      0.0022
    191  CD1       49.4330   15.7610   83.0790 C.3   235  LEU235      0.0001
    192  CD2       49.1690   13.6960   84.4920 C.3   235  LEU235      0.0001
@<TRIPOS>BOND
     1   146   145    1
     2   147   145    1
     3   145   144    2
     4   156   155    2
     5   159   158    1
     6   154   155    1
     7   154   153    1
     8   154   157    1
     9   144   143    1
    10   110   111    1
    11   143   142    1
    12   111   112    1
    13   157   158    1
    14   125   126    1
    15    16    17    1
    16    16    13    1
    17    12    13    1
    18   158   160    1
    19   116   117    2
    20   116   115    1
    21   113   112    2
    22   112   114   am
    23   114   115    1
    24    18    17   ar
    25    18    20   ar
    26    17    19   ar
    27    13    14    1
    28   140   139    2
    29   142   141    1
    30   115   118    1
    31   126   127    1
    32   126   129    1
    33    20    21   ar
    34   127   128    2
    35   118   119    1
    36   138   141    1
    37   138   139    1
    38   138   137    1
    39    19    21   ar
    40    19    22   ar
    41    14    15    2
    42   139   148   am
    43   151   150    2
    44   129   130    1
    45    21    23   ar
    46    22    24   ar
    47   150   149    1
    48   119   120   ar
    49   119   121   ar
    50   148   149    1
    51   168   167    1
    52    23    25   ar
    53   149   152    1
    54    24    25   ar
    55   120   122   ar
    56   130   131    1
    57   130   132    1
    58   161   162    1
    59   166   167    1
    60   166   165    1
    61   121   123   ar
    62    30    31    1
    63    30    27    1
    64    26    27    1
    65   122   124   ar
    66   162   165    1
    67   162   163    1
    68    33    31   ar
    69    33    35   ar
    70    31    32   ar
    71   136   135    2
    72    27    28    1
    73   123   124   ar
    74    35    36   ar
    75    32    34   ar
    76   135   134    1
    77   134   133    1
    78   163   164    2
    79    28    29    2
    80   107   109   ar
    81   107   105   ar
    82    36    34   ar
    83   109   108   ar
    84   105   104   ar
    85   191   190    1
    86   108   106   ar
    87    43    42    1
    88   176   174    1
    89   175   173    1
    90    79    78    1
    91   104   106   ar
    92   104   103    1
    93   190   192    1
    94   190   189    1
    95    42    41    1
    96    42    44    1
    97    37    38    1
    98   173   174    1
    99   173   170    1
   100   189   186    1
   101    78    77    1
   102    41    38    1
   103    96    98    1
   104    96    95    1
   105   103   100    1
   106    49    46    1
   107    99   100    1
   108    38    39    1
   109    45    46    1
   110    45    39   am
   111    97    95    1
   112    63    61    1
   113   188   187    2
   114   171   170    1
   115   171   172    2
   116   100   101    1
   117   170   169    1
   118    95    92    1
   119    46    47    1
   120   186   187    1
   121   186   185    1
   122    62    61    1
   123    39    40    2
   124    77    76    1
   125    94    93    2
   126    61    60    1
   127   184   183    1
   128    93    92    1
   129   101   102    2
   130   185   179   am
   131    47    48    2
   132    92    91    1
   133    76    73    1
   134    73    74    1
   135    73    72    1
   136    75    74    2
   137    60    57    1
   138   179   180    2
   139   179   178    1
   140    91    82   am
   141    67    66    2
   142   183   182    1
   143    72    66   am
   144    70    69    1
   145   182   181    1
   146    59    58    2
   147    68    69    1
   148    68    65    1
   149    66    65    1
   150   181   178    1
   151   177   178    1
   152    57    58    1
   153    57    56    1
   154    69    71    1
   155    82    83    2
   156    82    81    1
   157    65    64    1
   158    54    51    1
   159    54    55    1
   160    50    51    1
   161    80    81    1
   162    81    84    1
   163    51    52    1
   164    11    10   ar
   165    11     9   ar
   166    84    85    1
   167    10     8   ar
   168    52    53    2
   169     9     7   ar
   170    85    86    1
   171     8     6   ar
   172    86    87    1
   173     7     6   ar
   174     6     5    1
   175    87    88    2
   176    89    88    1
   177     5     2    1
   178    88    90    1
   179     3     2    1
   180     3     4    2
   181     2     1    1
