@<TRIPOS>MOLECULE
tmp/1exxA01.pdb
 106 98 0 0 0
SMALL
GASTEIGER

@<TRIPOS>ATOM
      1  N         40.0910   23.2110   88.8700 N.3    55  LYS55      -0.1245
      2  CA        39.3030   23.5060   90.0620 C.3    55  LYS55       0.1561
      3  C         39.1270   22.2870   90.9580 C.2    55  LYS55       0.2260
      4  O         39.1070   22.4530   92.1740 O.2    55  LYS55      -0.2867
      5  CB        37.9010   24.0180   89.6810 C.3    55  LYS55       0.0271
      6  CG        38.0340   25.4300   89.0880 C.3    55  LYS55       0.0035
      7  CD        36.7120   25.9590   88.5670 C.3    55  LYS55       0.0206
      8  CE        36.9630   27.3610   87.9730 C.3    55  LYS55       0.1093
      9  NZ        36.9810   28.3450   89.1090 N.3    55  LYS55      -0.1314
     10  N         41.1730   19.8150   91.2680 N.3    57  ILE57      -0.1231
     11  CA        42.4410   19.5050   91.9430 C.3    57  ILE57       0.1692
     12  C         42.5480   20.3190   93.2390 C.2    57  ILE57       0.2592
     13  O         42.9720   19.7920   94.2640 O.2    57  ILE57      -0.2718
     14  CB        43.6580   19.7290   91.0360 C.3    57  ILE57       0.0266
     15  CG1       43.7560   18.6640   89.9330 C.3    57  ILE57       0.0019
     16  CG2       44.9640   19.8000   91.8200 C.3    57  ILE57       0.0020
     17  CD1       44.7510   19.0310   88.8370 C.3    57  ILE57       0.0001
     18  N         42.1300   21.5870   93.1760 N.am   58  ILE58      -0.1966
     19  CA        42.1410   22.4190   94.3910 C.3    58  ILE58       0.1727
     20  C         41.2110   21.8360   95.4420 C.2    58  ILE58       0.2616
     21  O         41.6000   21.7840   96.6110 O.2    58  ILE58      -0.2715
     22  CB        41.7930   23.8800   94.0460 C.3    58  ILE58       0.0290
     23  CG1       42.8770   24.5470   93.1720 C.3    58  ILE58       0.0022
     24  CG2       41.5130   24.6470   95.3250 C.3    58  ILE58       0.0023
     25  CD1       42.3670   25.8100   92.5080 C.3    58  ILE58       0.0001
     26  N         40.0540   21.3620   95.0260 N.am   59  LYS59      -0.1977
     27  CA        39.0670   20.7400   95.8970 C.3    59  LYS59       0.1596
     28  C         39.5960   19.4550   96.5180 C.2    59  LYS59       0.2287
     29  O         39.2860   19.1550   97.6670 O.2    59  LYS59      -0.2864
     30  CB        37.7770   20.4210   95.1340 C.3    59  LYS59       0.0298
     31  CG        36.9830   21.6370   94.6750 C.3    59  LYS59       0.0038
     32  CD        36.3430   22.3480   95.8580 C.3    59  LYS59       0.0206
     33  CE        35.6130   23.6120   95.3840 C.3    59  LYS59       0.1093
     34  NZ        35.0250   24.2540   96.5900 N.3    59  LYS59      -0.1314
     35  N         42.8000   18.9080   97.2040 N.3    61  VAL61      -0.1231
     36  CA        43.7450   19.3630   98.2400 C.3    61  VAL61       0.1692
     37  C         42.9710   19.7890   99.4890 C.2    61  VAL61       0.2591
     38  O         43.3280   19.4440  100.6340 O.2    61  VAL61      -0.2718
     39  CB        44.6290   20.4910   97.7170 C.3    61  VAL61       0.0266
     40  CG1       45.5360   21.0340   98.8270 C.3    61  VAL61       0.0020
     41  CG2       45.4730   19.9800   96.5450 C.3    61  VAL61       0.0020
     42  N         41.8740   20.5110   99.2840 N.am   62  GLU62      -0.1979
     43  CA        40.9940   20.9060  100.3940 C.3    62  GLU62       0.1602
     44  C         40.4260   19.6980  101.1330 C.2    62  GLU62       0.2287
     45  O         40.4370   19.6650  102.3620 O.2    62  GLU62      -0.2864
     46  CB        39.8570   21.7650   99.8320 C.3    62  GLU62       0.0415
     47  CG        38.9170   22.3730  100.8490 C.3    62  GLU62       0.1163
     48  CD        37.8150   23.1960  100.2020 C.2    62  GLU62       0.3649
     49  OE1       38.1040   23.8870   99.2000 O.co2  62  GLU62      -0.2457
     50  OE2       36.6680   23.1570  100.6860 O.co2  62  GLU62      -0.2457
     51  N         52.5040   16.7620   99.9560 N.3    79  ILE79      -0.1245
     52  CA        52.5770   16.9850   98.5100 C.3    79  ILE79       0.1561
     53  C         52.8440   15.7060   97.7360 C.2    79  ILE79       0.2260
     54  O         52.2580   15.4540   96.6720 O.2    79  ILE79      -0.2867
     55  CB        53.7010   18.0170   98.2300 C.3    79  ILE79       0.0252
     56  CG1       53.3130   19.3700   98.8190 C.3    79  ILE79       0.0019
     57  CG2       54.0110   18.0480   96.7400 C.3    79  ILE79       0.0019
     58  CD1       54.3740   20.4360   98.5750 C.3    79  ILE79       0.0001
     59  N         49.5930   13.7490   97.5140 N.3    82  LEU82      -0.1231
     60  CA        48.6470   14.4000   96.5880 C.3    82  LEU82       0.1693
     61  C         49.0840   14.1350   95.1590 C.2    82  LEU82       0.2591
     62  O         48.2910   13.7610   94.2930 O.2    82  LEU82      -0.2718
     63  CB        48.5530   15.8970   96.9000 C.3    82  LEU82       0.0284
     64  CG        47.6530   16.2070   98.1060 C.3    82  LEU82       0.0019
     65  CD1       47.9920   17.5810   98.6850 C.3    82  LEU82       0.0001
     66  CD2       46.1670   16.1880   97.7880 C.3    82  LEU82       0.0001
     67  N         50.3800   14.3280   94.8630 N.am   83  LYS83      -0.1980
     68  CA        50.8440   14.1120   93.4980 C.3    83  LYS83       0.1596
     69  C         50.6430   12.6710   93.0400 C.2    83  LYS83       0.2287
     70  O         50.3800   12.4170   91.8730 O.2    83  LYS83      -0.2864
     71  CB        52.3430   14.4800   93.4310 C.3    83  LYS83       0.0298
     72  CG        52.5590   15.9910   93.2520 C.3    83  LYS83       0.0038
     73  CD        54.0460   16.3410   93.4230 C.3    83  LYS83       0.0206
     74  CE        54.1910   17.8660   93.1690 C.3    83  LYS83       0.1093
     75  NZ        54.3300   18.1040   91.6970 N.3    83  LYS83      -0.1314
     76  N         46.2840   12.1630   93.1350 N.3    86  CYS86      -0.1235
     77  CA        45.2570   13.0860   92.6540 C.3    86  CYS86       0.1677
     78  C         44.5850   12.6050   91.3800 C.2    86  CYS86       0.2270
     79  O         43.3730   12.7160   91.2290 O.2    86  CYS86      -0.2867
     80  CB        45.9340   14.4570   92.4130 C.3    86  CYS86       0.0956
     81  SG        44.6870   15.7550   92.2370 S.3    86  CYS86      -0.0801
     82  N         48.5160   23.4230   87.6390 N.3   230  LEU230     -0.1245
     83  CA        48.2240   22.4420   88.6790 C.3   230  LEU230      0.1561
     84  C         48.0940   21.0440   88.0550 C.2   230  LEU230      0.2260
     85  O         48.3490   20.0110   88.7140 O.2   230  LEU230     -0.2867
     86  CB        46.9740   22.8510   89.4480 C.3   230  LEU230      0.0270
     87  CG        47.1680   24.0410   90.3990 C.3   230  LEU230      0.0019
     88  CD1       45.9800   24.2430   91.3390 C.3   230  LEU230      0.0001
     89  CD2       48.4250   23.8630   91.2320 C.3   230  LEU230      0.0001
     90  N         51.5800   19.9000   87.8470 N.3   233  GLU233     -0.1231
     91  CA        52.0550   19.4330   89.1550 C.3   233  GLU233      0.1699
     92  C         51.6240   18.0030   89.4560 C.2   233  GLU233      0.2592
     93  O         52.3070   17.1720   90.0600 O.2   233  GLU233     -0.2718
     94  CB        51.4610   20.3010   90.2740 C.3   233  GLU233      0.0402
     95  CG        52.1210   21.6810   90.3760 C.3   233  GLU233      0.1161
     96  CD        53.5970   21.5770   90.7300 C.2   233  GLU233      0.3649
     97  OE1       53.8970   20.7590   91.6080 O.co2 233  GLU233     -0.2457
     98  OE2       54.4450   22.2810   90.1330 O.co2 233  GLU233     -0.2457
     99  N         50.3890   17.7150   89.0560 N.am  234  MET234     -0.1979
    100  CA        49.8710   16.3620   89.2480 C.3   234  MET234      0.1605
    101  C         50.6240   15.3640   88.4070 C.2   234  MET234      0.2287
    102  O         50.8490   14.2350   88.8650 O.2   234  MET234     -0.2864
    103  CB        48.3510   16.4070   88.9470 C.3   234  MET234      0.0413
    104  CG        47.7450   15.0270   88.7360 C.3   234  MET234      0.0598
    105  SD        45.9550   15.1520   88.5700 S.3   234  MET234     -0.1393
    106  CE        45.8520   15.6250   86.8110 C.3   234  MET234      0.0692
@<TRIPOS>BOND
     1   106   105    1
     2    82    83    1
     3    90    91    1
     4     8     7    1
     5     8     9    1
     6    84    83    1
     7    84    85    2
     8   101   102    2
     9   101   100    1
    10     7     6    1
    11   105   104    1
    12    83    86    1
    13   104   103    1
    14    17    15    1
    15     1     2    1
    16   103   100    1
    17    99   100    1
    18    99    92   am
    19     6     5    1
    20    91    92    1
    21    91    94    1
    22    86    87    1
    23    92    93    2
    24     5     2    1
    25    15    14    1
    26     2     3    1
    27    98    96   ar
    28    94    95    1
    29    95    96    1
    30    87    89    1
    31    87    88    1
    32    96    97   ar
    33     3     4    2
    34    14    16    1
    35    14    11    1
    36    79    78    2
    37    10    11    1
    38    78    77    1
    39    75    74    1
    40    70    69    2
    41    11    12    1
    42    81    80    1
    43    80    77    1
    44    25    23    1
    45    77    76    1
    46    69    68    1
    47    74    73    1
    48    23    22    1
    49    18    12   am
    50    18    19    1
    51    12    13    2
    52    72    73    1
    53    72    71    1
    54    71    68    1
    55    68    67    1
    56    22    19    1
    57    22    24    1
    58    62    61    2
    59    19    20    1
    60    31    30    1
    61    31    32    1
    62    67    61   am
    63    26    20   am
    64    26    27    1
    65    30    27    1
    66    61    60    1
    67    33    32    1
    68    33    34    1
    69    20    21    2
    70    27    28    1
    71    28    29    2
    72    41    39    1
    73    60    63    1
    74    60    59    1
    75    54    53    2
    76    57    55    1
    77    63    64    1
    78    35    36    1
    79    39    36    1
    80    39    40    1
    81    53    52    1
    82    66    64    1
    83    64    65    1
    84    55    52    1
    85    55    56    1
    86    36    37    1
    87    52    51    1
    88    58    56    1
    89    49    48   ar
    90    42    37   am
    91    42    43    1
    92    37    38    2
    93    46    43    1
    94    46    47    1
    95    48    50   ar
    96    48    47    1
    97    43    44    1
    98    44    45    2
