@<TRIPOS>MOLECULE
tmp/1ey3B01.pdb
 199 189 0 0 0
SMALL
GASTEIGER

@<TRIPOS>ATOM
      1  N         39.3010    8.2850   45.2770 N.3    24  LYS24      -0.1231
      2  CA        37.8470    8.3460   45.2180 C.3    24  LYS24       0.1693
      3  C         37.2770    9.2410   44.1130 C.2    24  LYS24       0.2592
      4  O         36.4020    8.8100   43.3650 O.2    24  LYS24      -0.2718
      5  CB        37.2790    8.7730   46.5880 C.3    24  LYS24       0.0285
      6  CG        38.2970    9.3710   47.5790 C.3    24  LYS24       0.0035
      7  CD        39.2410    8.3100   48.1400 C.3    24  LYS24       0.0206
      8  CE        40.3430    8.9230   48.9950 C.3    24  LYS24       0.1093
      9  NZ        41.3920    7.9260   49.3810 N.3    24  LYS24      -0.1314
     10  N         37.7760   10.4690   44.0010 N.am   25  ALA25      -0.1966
     11  CA        37.2760   11.3940   42.9850 C.3    25  ALA25       0.1728
     12  C         38.1550   11.4170   41.7410 C.2    25  ALA25       0.2616
     13  O         38.2660   12.4470   41.0790 O.2    25  ALA25      -0.2715
     14  CB        37.1640   12.8020   43.5720 C.3    25  ALA25       0.0334
     15  N         38.7660   10.2790   41.4210 N.am   26  LEU26      -0.1977
     16  CA        39.6430   10.1840   40.2620 C.3    26  LEU26       0.1596
     17  C         40.6350   11.3440   40.2680 C.2    26  LEU26       0.2287
     18  O         40.9170   11.9420   39.2360 O.2    26  LEU26      -0.2864
     19  CB        38.8160   10.1890   38.9660 C.3    26  LEU26       0.0297
     20  CG        38.5060    8.8440   38.2870 C.3    26  LEU26       0.0022
     21  CD1       38.9690    7.6880   39.1500 C.3    26  LEU26       0.0001
     22  CD2       37.0240    8.7340   38.0110 C.3    26  LEU26       0.0001
     23  N         40.2560   14.2970   41.3910 N.3    28  ALA28      -0.1245
     24  CA        39.6570   15.6000   41.1150 C.3    28  ALA28       0.1562
     25  C         40.4170   16.6280   41.9550 C.2    28  ALA28       0.2260
     26  O         40.5590   16.4680   43.1630 O.2    28  ALA28      -0.2867
     27  CB        38.1790   15.5900   41.4820 C.3    28  ALA28       0.0290
     28  N         41.0210   13.9720   37.0120 N.3    64  ALA64      -0.1245
     29  CA        39.8160   14.0870   36.1920 C.3    64  ALA64       0.1562
     30  C         39.3530   15.5320   36.0230 C.2    64  ALA64       0.2260
     31  O         38.2910   15.7900   35.4590 O.2    64  ALA64      -0.2867
     32  CB        38.7010   13.2450   36.7990 C.3    64  ALA64       0.0290
     33  N         39.2290   19.7460   37.8130 N.3    66  ALA66      -0.1231
     34  CA        39.0330   20.4350   39.0800 C.3    66  ALA66       0.1694
     35  C         37.7810   19.8040   39.6810 C.2    66  ALA66       0.2592
     36  O         37.0320   19.1130   38.9840 O.2    66  ALA66      -0.2718
     37  CB        38.8130   21.9260   38.8460 C.3    66  ALA66       0.0304
     38  N         37.5450   20.0360   40.9670 N.am   67  ASP67      -0.1960
     39  CA        36.3720   19.4570   41.6010 C.3    67  ASP67       0.1840
     40  C         35.0930   20.1560   41.1470 C.2    67  ASP67       0.2622
     41  O         34.8250   21.2900   41.5370 O.2    67  ASP67      -0.2715
     42  CB        36.4890   19.5460   43.1170 C.3    67  ASP67       0.1450
     43  CG        35.6170   18.5250   43.8180 C.2    67  ASP67       0.3671
     44  OD1       34.4050   18.4610   43.5090 O.co2  67  ASP67      -0.2456
     45  OD2       36.1470   17.7850   44.6730 O.co2  67  ASP67      -0.2456
     46  N         34.3090   19.4680   40.3230 N.am   68  ILE68      -0.1963
     47  CA        33.0600   20.0130   39.8110 C.3    68  ILE68       0.1727
     48  C         32.0870   20.3900   40.9320 C.2    68  ILE68       0.2616
     49  O         31.3780   21.3910   40.8340 O.2    68  ILE68      -0.2715
     50  CB        32.3690   19.0120   38.8690 C.3    68  ILE68       0.0290
     51  CG1       33.2620   18.7460   37.6610 C.3    68  ILE68       0.0022
     52  CG2       31.0270   19.5660   38.4060 C.3    68  ILE68       0.0023
     53  CD1       32.7220   17.6750   36.7180 C.3    68  ILE68       0.0001
     54  N         32.0610   19.5920   41.9960 N.am   69  LYS69      -0.1977
     55  CA        31.1690   19.8520   43.1260 C.3    69  LYS69       0.1596
     56  C         31.4970   21.1900   43.7940 C.2    69  LYS69       0.2287
     57  O         30.5960   21.9000   44.2460 O.2    69  LYS69      -0.2864
     58  CB        31.2850   18.7490   44.1890 C.3    69  LYS69       0.0298
     59  CG        31.5290   17.3300   43.6770 C.3    69  LYS69       0.0038
     60  CD        30.2630   16.5140   43.4510 C.3    69  LYS69       0.0206
     61  CE        30.6330   15.0380   43.2310 C.3    69  LYS69       0.1093
     62  NZ        29.4960   14.1360   42.8540 N.3    69  LYS69      -0.1314
     63  N         32.5990   23.9230   42.4210 N.3    71  MET71      -0.1245
     64  CA        32.3080   25.1100   41.6280 C.3    71  MET71       0.1570
     65  C         30.8740   25.1990   41.1170 C.2    71  MET71       0.2261
     66  O         30.5130   26.1550   40.4280 O.2    71  MET71      -0.2867
     67  CB        33.2940   25.2210   40.4550 C.3    71  MET71       0.0387
     68  CG        33.5040   23.9370   39.6710 C.3    71  MET71       0.0595
     69  SD        34.6250   24.1410   38.2510 S.3    71  MET71      -0.1393
     70  CE        36.1970   24.3880   39.1250 C.3    71  MET71       0.0692
     71  N         38.8690   32.4360   44.0370 N.3    84  PHE84      -0.1227
     72  CA        37.8570   31.4040   43.7940 C.3    84  PHE84       0.1736
     73  C         38.5990   30.1280   43.3840 C.2    84  PHE84       0.2595
     74  O         38.5500   29.1080   44.0790 O.2    84  PHE84      -0.2718
     75  CB        36.9110   31.8710   42.6730 C.3    84  PHE84       0.0547
     76  CG        36.0810   30.7710   42.0460 C.ar   84  PHE84      -0.0202
     77  CD1       35.8830   29.5470   42.6870 C.ar   84  PHE84      -0.0042
     78  CD2       35.5070   30.9650   40.7920 C.ar   84  PHE84      -0.0042
     79  CE1       35.1360   28.5360   42.0880 C.ar   84  PHE84      -0.0003
     80  CE2       34.7570   29.9620   40.1830 C.ar   84  PHE84      -0.0003
     81  CZ        34.5730   28.7450   40.8320 C.ar   84  PHE84      -0.0000
     82  N         39.2670   30.1940   42.2410 N.am   85  LEU85      -0.1980
     83  CA        40.0600   29.0830   41.7330 C.3    85  LEU85       0.1596
     84  C         41.4600   29.6590   41.5810 C.2    85  LEU85       0.2287
     85  O         42.0170   29.7180   40.4860 O.2    85  LEU85      -0.2864
     86  CB        39.5170   28.6090   40.3840 C.3    85  LEU85       0.0297
     87  CG        38.2970   27.6880   40.4490 C.3    85  LEU85       0.0022
     88  CD1       37.5540   27.6910   39.1400 C.3    85  LEU85       0.0001
     89  CD2       38.7680   26.2850   40.7920 C.3    85  LEU85       0.0001
     90  N         46.2620   28.3560   40.8110 N.3    88  TRP88      -0.1241
     91  CA        46.2470   27.2380   39.8810 C.3    88  TRP88       0.1605
     92  C         47.4150   27.2690   38.9030 C.2    88  TRP88       0.2264
     93  O         47.6140   26.3150   38.1530 O.2    88  TRP88      -0.2867
     94  CB        44.9440   27.2160   39.0950 C.3    88  TRP88       0.0550
     95  CG        44.0440   26.1010   39.4800 C.ar   88  TRP88       0.0003
     96  CD1       43.1990   26.0600   40.5500 C.ar   88  TRP88       0.0946
     97  CD2       43.9050   24.8480   38.8070 C.ar   88  TRP88       0.0152
     98  NE1       42.5370   24.8540   40.5800 N.ar   88  TRP88      -0.2442
     99  CE2       42.9470   24.0950   39.5280 C.ar   88  TRP88       0.0810
    100  CE3       44.4900   24.2920   37.6640 C.ar   88  TRP88       0.0012
    101  CZ2       42.5700   22.8030   39.1370 C.ar   88  TRP88       0.0191
    102  CZ3       44.1100   23.0090   37.2800 C.ar   88  TRP88       0.0001
    103  CH2       43.1570   22.2810   38.0160 C.ar   88  TRP88       0.0015
    104  N         43.4090    8.7980   32.9520 N.3   105  TYR105     -0.1241
    105  CA        42.7200   10.0590   32.7150 C.3   105  TYR105      0.1605
    106  C         43.4560   11.3360   33.0900 C.2   105  TYR105      0.2264
    107  O         43.9820   11.4750   34.1970 O.2   105  TYR105     -0.2867
    108  CB        41.3770   10.0700   33.4470 C.3   105  TYR105      0.0534
    109  CG        40.3710    9.0700   32.9340 C.ar  105  TYR105     -0.0201
    110  CD1       39.9760    9.0740   31.6000 C.ar  105  TYR105     -0.0009
    111  CD2       39.7890    8.1370   33.7930 C.ar  105  TYR105     -0.0009
    112  CE1       39.0210    8.1740   31.1290 C.ar  105  TYR105      0.0417
    113  CE2       38.8340    7.2340   33.3320 C.ar  105  TYR105      0.0417
    114  CZ        38.4550    7.2590   32.0010 C.ar  105  TYR105      0.1957
    115  OH        37.5160    6.3730   31.5310 O.3   105  TYR105     -0.2866
    116  N         41.9740   14.8700   32.3210 N.3   107  LEU107     -0.1231
    117  CA        40.8860   15.6620   31.7620 C.3   107  LEU107      0.1693
    118  C         40.7290   17.0440   32.3860 C.2   107  LEU107      0.2593
    119  O         41.0150   17.2470   33.5660 O.2   107  LEU107     -0.2718
    120  CB        39.5740   14.8920   31.9180 C.3   107  LEU107      0.0284
    121  CG        39.5970   13.4180   31.5060 C.3   107  LEU107      0.0019
    122  CD1       38.2890   12.7520   31.8990 C.3   107  LEU107      0.0001
    123  CD2       39.8200   13.3010   30.0040 C.3   107  LEU107      0.0001
    124  N         40.2470   17.9830   31.5780 N.am  108  GLY108     -0.1942
    125  CA        40.0520   19.3410   32.0430 C.3   108  GLY108      0.2014
    126  C         41.2580   19.8810   32.7760 C.2   108  GLY108      0.2639
    127  O         42.3650   19.9010   32.2410 O.2   108  GLY108     -0.2714
    128  N         41.0440   20.3130   34.0120 N.am  109  GLY109     -0.1954
    129  CA        42.1340   20.8500   34.8040 C.3   109  GLY109      0.1869
    130  C         43.3000   19.8900   34.9080 C.2   109  GLY109      0.2309
    131  O         44.4340   20.3120   35.1390 O.2   109  GLY109     -0.2863
    132  N         45.2000   20.3040   31.7380 N.3   112  GLU112     -0.1245
    133  CA        45.8220   21.6190   31.8110 C.3   112  GLU112      0.1567
    134  C         47.0010   21.6460   32.7650 C.2   112  GLU112      0.2260
    135  O         47.9780   22.3620   32.5360 O.2   112  GLU112     -0.2867
    136  CB        44.7810   22.6700   32.2090 C.3   112  GLU112      0.0388
    137  CG        43.7980   22.9410   31.0900 C.3   112  GLU112      0.1160
    138  CD        42.5920   23.7370   31.5350 C.2   112  GLU112      0.3649
    139  OE1       41.9420   23.3250   32.5230 O.co2 112  GLU112     -0.2457
    140  OE2       42.2820   24.7600   30.8880 O.co2 112  GLU112     -0.2457
    141  N         36.8450   18.2580   28.4390 N.3   131  PRO131     -0.2102
    142  CA        35.3910   18.0980   28.4110 C.3   131  PRO131      0.1504
    143  C         34.5840   19.2520   29.0070 C.2   131  PRO131      0.2575
    144  O         33.3670   19.1350   29.1620 O.2   131  PRO131     -0.2718
    145  CB        35.1910   16.7880   29.1660 C.3   131  PRO131      0.0282
    146  CG        36.2320   16.9030   30.2500 C.3   131  PRO131      0.0208
    147  CD        37.4480   17.4900   29.5460 C.3   131  PRO131      0.0893
    148  N         35.2480   20.3600   29.3240 N.am  132  GLU132     -0.1980
    149  CA        34.5580   21.5130   29.8910 C.3   132  GLU132      0.1602
    150  C         33.2720   21.8510   29.1270 C.2   132  GLU132      0.2287
    151  O         32.2400   22.1480   29.7230 O.2   132  GLU132     -0.2864
    152  CB        35.4730   22.7500   29.8900 C.3   132  GLU132      0.0415
    153  CG        36.5670   22.7820   30.9710 C.3   132  GLU132      0.1163
    154  CD        37.8080   21.9580   30.6230 C.2   132  GLU132      0.3649
    155  OE1       37.7960   21.2400   29.6030 O.co2 132  GLU132     -0.2457
    156  OE2       38.8000   22.0320   31.3820 O.co2 132  GLU132     -0.2457
    157  N         30.0500   20.4940   30.2300 N.3   135  LEU135     -0.1245
    158  CA        29.5290   20.9960   31.4960 C.3   135  LEU135      0.1561
    159  C         28.9970   22.4120   31.3210 C.2   135  LEU135      0.2260
    160  O         28.6800   23.0940   32.3020 O.2   135  LEU135     -0.2867
    161  CB        30.6370   21.0130   32.5510 C.3   135  LEU135      0.0270
    162  CG        31.3880   19.7090   32.8110 C.3   135  LEU135      0.0019
    163  CD1       32.5210   19.9620   33.7980 C.3   135  LEU135      0.0001
    164  CD2       30.4190   18.6710   33.3470 C.3   135  LEU135      0.0001
    165  N         30.7250   25.0070   30.0510 N.3   137  THR137     -0.1203
    166  CA        31.7710   25.9880   30.3340 C.3   137  THR137      0.1994
    167  C         32.9310   25.7500   29.3550 C.2   137  THR137      0.2617
    168  O         32.8360   24.9040   28.4570 O.2   137  THR137     -0.2717
    169  CB        32.2710   25.8720   31.7910 C.3   137  THR137      0.1784
    170  OG1       33.0850   27.0070   32.1090 O.3   137  THR137     -0.2211
    171  CG2       33.0840   24.5990   31.9790 C.3   137  THR137      0.0376
    172  N         34.0180   26.5040   29.5060 N.am  138  ILE138     -0.1979
    173  CA        35.1700   26.3320   28.6240 C.3   138  ILE138      0.1595
    174  C         36.4270   26.1630   29.4680 C.2   138  ILE138      0.2287
    175  O         36.4170   26.4500   30.6610 O.2   138  ILE138     -0.2864
    176  CB        35.3890   27.5480   27.6940 C.3   138  ILE138      0.0276
    177  CG1       35.8780   28.7470   28.5120 C.3   138  ILE138      0.0022
    178  CG2       34.1100   27.8830   26.9530 C.3   138  ILE138      0.0022
    179  CD1       36.5000   29.8450   27.6700 C.3   138  ILE138      0.0001
    180  N         39.6290   26.8390   31.4150 N.3   140  GLY140     -0.1210
    181  CA        40.0030   28.0860   32.0460 C.3   140  GLY140      0.1956
    182  C         41.3630   28.0790   32.6850 C.2   140  GLY140      0.2611
    183  O         41.6610   28.9340   33.5230 O.2   140  GLY140     -0.2717
    184  N         42.1920   27.1160   32.3010 N.am  141  ALA141     -0.1979
    185  CA        43.5460   27.0240   32.8340 C.3   141  ALA141      0.1597
    186  C         44.5490   26.7170   31.7310 C.2   141  ALA141      0.2287
    187  O         45.5050   25.9750   31.9480 O.2   141  ALA141     -0.2864
    188  CB        43.6140   25.9630   33.9290 C.3   141  ALA141      0.0319
    189  N         37.9720   12.6510   23.8460 N.3   165  ARG165     -0.1245
    190  CA        39.2830   12.3600   24.3960 C.3   165  ARG165      0.1563
    191  C         40.1910   11.8080   23.3150 C.2   165  ARG165      0.2260
    192  O         39.7190   11.2740   22.3040 O.2   165  ARG165     -0.2867
    193  CB        39.1480   11.3260   25.5160 C.3   165  ARG165      0.0307
    194  CG        38.0900   11.6770   26.5440 C.3   165  ARG165      0.0489
    195  CD        38.3290   10.9150   27.8290 C.3   165  ARG165      0.2205
    196  NE        37.9710    9.5030   27.7210 N.pl3 165  ARG165     -0.0865
    197  CZ        36.7600    9.0230   27.9790 C.cat 165  ARG165      0.5346
    198  NH1       35.7840    9.8370   28.3580 N.pl3 165  ARG165      0.1354
    199  NH2       36.5260    7.7240   27.8720 N.pl3 165  ARG165      0.1354
@<TRIPOS>BOND
     1   192   191    2
     2   191   190    1
     3   189   190    1
     4   190   193    1
     5   193   194    1
     6   194   195    1
     7   178   176    1
     8   179   177    1
     9   176   177    1
    10   176   173    1
    11   196   195    1
    12   196   197    2
    13   199   197    1
    14   197   198    1
    15   142   141    1
    16   142   143    1
    17   142   145    1
    18   141   147    1
    19   168   167    2
    20   173   174    1
    21   173   172    1
    22   143   144    2
    23   143   148   am
    24   150   151    2
    25   150   149    1
    26   145   146    1
    27   148   149    1
    28   167   172   am
    29   167   166    1
    30   174   175    2
    31   147   146    1
    32   155   154   ar
    33   152   149    1
    34   152   153    1
    35   123   121    1
    36   165   166    1
    37   157   158    1
    38   166   169    1
    39   154   153    1
    40   154   156   ar
    41   140   138   ar
    42   137   138    1
    43   137   136    1
    44   112   110   ar
    45   112   114   ar
    46   159   158    1
    47   159   160    2
    48   180   181    1
    49   158   161    1
    50   121   122    1
    51   121   120    1
    52   115   114    1
    53   138   139   ar
    54   124   125    1
    55   124   118   am
    56   110   109   ar
    57   186   187    2
    58   186   185    1
    59   132   133    1
    60   117   120    1
    61   117   116    1
    62   117   118    1
    63   169   171    1
    64   169   170    1
    65   133   136    1
    66   133   134    1
    67   114   113   ar
    68   125   126    1
    69   181   182    1
    70   127   126    2
    71   184   182   am
    72   184   185    1
    73   118   119    2
    74   135   134    2
    75   161   162    1
    76   182   183    2
    77   105   104    1
    78   105   106    1
    79   105   108    1
    80   126   128   am
    81   162   164    1
    82   162   163    1
    83   185   188    1
    84   109   108    1
    85   109   111   ar
    86   106   107    2
    87   113   111   ar
    88   128   129    1
    89   129   130    1
    90   130   131    2
    91    31    30    2
    92    30    29    1
    93    29    32    1
    94    29    28    1
    95    53    51    1
    96   102   100   ar
    97   102   103   ar
    98    51    50    1
    99   100    97   ar
   100    33    34    1
   101    22    20    1
   102   103   101   ar
   103    93    92    2
   104    69    70    1
   105    69    68    1
   106    20    19    1
   107    20    21    1
   108    52    50    1
   109    97    95   ar
   110    97    99   ar
   111    37    34    1
   112    50    47    1
   113    92    91    1
   114    19    16    1
   115    36    35    2
   116    34    35    1
   117    94    95    1
   118    94    91    1
   119   101    99   ar
   120    88    87    1
   121    18    17    2
   122    95    96   ar
   123    99    98   ar
   124    68    67    1
   125    35    38   am
   126    47    46    1
   127    47    48    1
   128    91    90    1
   129    80    78   ar
   130    80    81   ar
   131    16    17    1
   132    16    15    1
   133    46    40   am
   134    86    87    1
   135    86    83    1
   136    66    65    2
   137    87    89    1
   138    67    64    1
   139    85    84    2
   140    96    98   ar
   141    78    76   ar
   142    81    79   ar
   143    49    48    2
   144    48    54   am
   145    38    39    1
   146    13    12    2
   147    24    23    1
   148    24    27    1
   149    24    25    1
   150    65    64    1
   151    40    41    2
   152    40    39    1
   153    15    12   am
   154    84    83    1
   155    39    42    1
   156    64    63    1
   157    83    82    1
   158    12    11    1
   159    25    26    2
   160    54    55    1
   161    76    75    1
   162    76    77   ar
   163    79    77   ar
   164    82    73   am
   165    75    72    1
   166    62    61    1
   167    11    14    1
   168    11    10    1
   169    42    43    1
   170    55    56    1
   171    55    58    1
   172    61    60    1
   173     4     3    2
   174    73    72    1
   175    73    74    2
   176    60    59    1
   177    44    43   ar
   178    59    58    1
   179    72    71    1
   180    56    57    2
   181    43    45   ar
   182    10     3   am
   183     3     2    1
   184     2     1    1
   185     2     5    1
   186     5     6    1
   187     6     7    1
   188     7     8    1
   189     8     9    1
