@<TRIPOS>MOLECULE
tmp/1eyeA00.pdb
 142 127 0 0 0
SMALL
GASTEIGER

@<TRIPOS>ATOM
      1  N         29.2760   -2.7550   36.2790 N.3     7  VAL7       -0.1245
      2  CA        28.6520   -1.8240   37.2180 C.3     7  VAL7        0.1561
      3  C         27.1930   -2.1310   37.5180 C.2     7  VAL7        0.2260
      4  O         26.3710   -2.2450   36.5970 O.2     7  VAL7       -0.2867
      5  CB        28.7650   -0.3840   36.6950 C.3     7  VAL7        0.0252
      6  CG1       28.0940    0.5880   37.6680 C.3     7  VAL7        0.0019
      7  CG2       30.2350   -0.0280   36.5660 C.3     7  VAL7        0.0019
      8  N         24.5300   -0.3560   39.7920 N.3     9  ASN9       -0.1240
      9  CA        24.1270    0.7540   40.6470 C.3     9  ASN9        0.1653
     10  C         22.8230    0.4090   41.2870 C.2     9  ASN9        0.2266
     11  O         21.8050    0.2890   40.5980 O.2     9  ASN9       -0.2867
     12  CB        23.9450    2.0640   39.8590 C.3     9  ASN9        0.1155
     13  CG        25.2580    2.7830   39.7090 C.2     9  ASN9        0.2627
     14  OD1       25.6280    3.2050   38.5980 O.2     9  ASN9       -0.2716
     15  ND2       25.9710    2.8920   40.8180 N.am    9  ASN9       -0.0877
     16  N         22.0890    9.1260   36.9260 N.3    16  SER16      -0.1202
     17  CA        22.8960    7.9160   36.7410 C.3    16  SER16       0.2020
     18  C         23.5570    7.7360   35.3830 C.2    16  SER16       0.2618
     19  O         22.9570    8.0570   34.3460 O.2    16  SER16      -0.2717
     20  CB        22.1050    6.6580   37.0820 C.3    16  SER16       0.2103
     21  OG        22.8590    5.4920   36.7900 O.3    16  SER16      -0.2182
     22  N         24.7830    7.1860   35.4280 N.am   17  ASP17      -0.1973
     23  CA        25.5510    6.8620   34.2330 C.3    17  ASP17       0.1709
     24  C         25.0740    5.5090   33.7200 C.2    17  ASP17       0.2293
     25  O         25.3200    5.1030   32.5870 O.2    17  ASP17      -0.2864
     26  CB        27.0610    6.7220   34.5180 C.3    17  ASP17       0.1436
     27  CG        27.6850    8.0850   34.4930 C.2    17  ASP17       0.3671
     28  OD1       27.1150    9.0590   34.0540 O.co2  17  ASP17      -0.2456
     29  OD2       28.8340    8.1650   35.0860 O.co2  17  ASP17      -0.2456
     30  N         31.1770   -1.4050   46.2130 N.3    68  ASP68      -0.1239
     31  CA        31.6210   -0.0520   45.9310 C.3    68  ASP68       0.1674
     32  C         31.1340    0.8670   47.0470 C.2    68  ASP68       0.2266
     33  O         29.9870    1.3280   47.0400 O.2    68  ASP68      -0.2867
     34  CB        31.1750    0.4120   44.5190 C.3    68  ASP68       0.1410
     35  CG        31.7250    1.7590   44.1300 C.2    68  ASP68       0.3668
     36  OD1       32.2550    2.5160   44.9190 O.co2  68  ASP68      -0.2456
     37  OD2       31.6340    2.0260   42.8540 O.co2  68  ASP68      -0.2456
     38  N         35.8390   -1.9320   46.7560 N.3    87  ASN87      -0.1240
     39  CA        36.1510   -0.8790   45.8040 C.3    87  ASN87       0.1653
     40  C         35.9650    0.4530   46.5000 C.2    87  ASN87       0.2266
     41  O         34.8420    0.8990   46.7300 O.2    87  ASN87      -0.2867
     42  CB        35.2440   -1.0070   44.5620 C.3    87  ASN87       0.1155
     43  CG        35.4920    0.1030   43.5570 C.2    87  ASN87       0.2627
     44  OD1       36.5430    0.7470   43.6510 O.2    87  ASN87      -0.2716
     45  ND2       34.4690    0.4360   42.7360 N.am   87  ASN87      -0.0877
     46  N         36.2170    4.3810   46.6000 N.3    89  VAL89      -0.1245
     47  CA        36.4990    5.5980   45.8510 C.3    89  VAL89       0.1561
     48  C         37.3650    6.6070   46.5910 C.2    89  VAL89       0.2260
     49  O         37.9590    7.4990   45.9860 O.2    89  VAL89      -0.2867
     50  CB        35.2790    6.2050   45.1510 C.3    89  VAL89       0.0252
     51  CG1       34.5760    5.1440   44.3050 C.3    89  VAL89       0.0019
     52  CG2       34.2990    6.8570   46.1400 C.3    89  VAL89       0.0019
     53  N         40.3550   -1.9620   46.0790 N.3   110  VAL110     -0.1245
     54  CA        40.6650   -0.9980   45.0420 C.3   110  VAL110      0.1561
     55  C         40.8150    0.3660   45.7020 C.2   110  VAL110      0.2260
     56  O         39.8660    0.8500   46.3360 O.2   110  VAL110     -0.2867
     57  CB        39.5600   -0.8530   43.9710 C.3   110  VAL110      0.0252
     58  CG1       39.9800    0.1760   42.9090 C.3   110  VAL110      0.0019
     59  CG2       39.1670   -2.2000   43.3320 C.3   110  VAL110      0.0019
     60  N         41.0320    3.9730   44.8550 N.3   112  MET112     -0.1245
     61  CA        40.8130    4.8830   43.7590 C.3   112  MET112      0.1570
     62  C         41.3750    6.2310   44.0890 C.2   112  MET112      0.2261
     63  O         41.2550    6.6340   45.2380 O.2   112  MET112     -0.2867
     64  CB        39.3030    5.0330   43.4130 C.3   112  MET112      0.0387
     65  CG        39.0950    5.5290   41.9640 C.3   112  MET112      0.0595
     66  SD        37.4390    6.2070   41.7650 S.3   112  MET112     -0.1393
     67  CE        37.5250    7.7340   42.7540 C.3   112  MET112      0.0692
     68  N         43.5430    2.6720   40.9340 N.3   159  ASP159     -0.1239
     69  CA        42.5910    3.2710   40.0100 C.3   159  ASP159      0.1674
     70  C         42.8010    4.7770   40.0460 C.2   159  ASP159      0.2266
     71  O         42.7120    5.3950   41.1010 O.2   159  ASP159     -0.2867
     72  CB        41.1480    2.8370   40.2790 C.3   159  ASP159      0.1410
     73  CG        40.1790    3.4420   39.3290 C.2   159  ASP159      0.3668
     74  OD1       40.3850    4.4700   38.6980 O.co2 159  ASP159     -0.2456
     75  OD2       39.1190    2.7020   39.2050 O.co2 159  ASP159     -0.2456
     76  N         39.2340    8.3960   37.1600 N.3   162  LEU162     -0.1245
     77  CA        38.9240    9.3270   36.0960 C.3   162  LEU162      0.1561
     78  C         37.7020   10.1930   36.3770 C.2   162  LEU162      0.2260
     79  O         36.6670    9.6870   36.8070 O.2   162  LEU162     -0.2867
     80  CB        38.7560    8.5730   34.7470 C.3   162  LEU162      0.0270
     81  CG        39.9890    7.7440   34.3520 C.3   162  LEU162      0.0019
     82  CD1       39.6680    6.8580   33.1420 C.3   162  LEU162      0.0001
     83  CD2       41.1640    8.6580   34.0260 C.3   162  LEU162      0.0001
     84  N         37.2210   12.2860   38.6720 N.3   164  PHE164     -0.1241
     85  CA        36.9550   12.7070   40.0520 C.3   164  PHE164      0.1605
     86  C         37.8600   13.8820   40.4060 C.2   164  PHE164      0.2264
     87  O         39.0530   13.6930   40.6500 O.2   164  PHE164     -0.2867
     88  CB        37.2350   11.5490   41.0070 C.3   164  PHE164      0.0534
     89  CG        36.1350   10.5180   40.9850 C.ar  164  PHE164     -0.0203
     90  CD1       36.2000    9.4380   40.1020 C.ar  164  PHE164     -0.0042
     91  CD2       35.0550   10.6140   41.8640 C.ar  164  PHE164     -0.0042
     92  CE1       35.1970    8.4720   40.0890 C.ar  164  PHE164     -0.0003
     93  CE2       34.0520    9.6480   41.8750 C.ar  164  PHE164     -0.0003
     94  CZ        34.1300    8.5770   40.9840 C.ar  164  PHE164     -0.0000
     95  N         43.2160   -0.5060   37.5000 N.3   189  LEU189     -0.1245
     96  CA        41.8400   -0.6170   37.0520 C.3   189  LEU189      0.1561
     97  C         41.4720    0.7250   36.4420 C.2   189  LEU189      0.2260
     98  O         41.7950    1.7540   37.0290 O.2   189  LEU189     -0.2867
     99  CB        40.8810   -0.9320   38.2260 C.3   189  LEU189      0.0270
    100  CG        39.3870   -0.7660   37.9100 C.3   189  LEU189      0.0019
    101  CD1       38.8920   -1.8680   36.9610 C.3   189  LEU189      0.0001
    102  CD2       38.5770   -0.8810   39.2000 C.3   189  LEU189      0.0001
    103  N         38.4010    3.1900   35.0980 N.3   191  GLY191     -0.1225
    104  CA        36.9700    3.3760   35.1480 C.3   191  GLY191      0.1811
    105  C         36.5570    4.6000   34.3550 C.2   191  GLY191      0.2280
    106  O         36.2700    5.6700   34.9110 O.2   191  GLY191     -0.2866
    107  N         34.0690    4.3490   31.8450 N.3   193  SER193     -0.1217
    108  CA        32.7270    4.0570   31.3760 C.3   193  SER193      0.1889
    109  C         31.6740    5.1390   31.4710 C.2   193  SER193      0.2288
    110  O         31.2550    5.4830   32.5510 O.2   193  SER193     -0.2866
    111  CB        32.2040    2.6860   31.7960 C.3   193  SER193      0.2089
    112  OG        30.8910    2.4170   31.2800 O.3   193  SER193     -0.2183
    113  N         31.6000    8.1860   31.3710 N.3   195  LYS195     -0.1245
    114  CA        31.8290    9.4110   32.1130 C.3   195  LYS195      0.1561
    115  C         31.6670   10.6610   31.2660 C.2   195  LYS195      0.2260
    116  O         31.6830   10.6110   30.0360 O.2   195  LYS195     -0.2867
    117  CB        33.1310    9.3600   32.9010 C.3   195  LYS195      0.0271
    118  CG        33.0790    8.4870   34.1590 C.3   195  LYS195      0.0035
    119  CD        34.3670    8.5750   35.0100 C.3   195  LYS195      0.0206
    120  CE        34.2940    7.9280   36.4050 C.3   195  LYS195      0.1093
    121  NZ        34.2850    6.4460   36.3610 N.3   195  LYS195     -0.1314
    122  N         36.2600   -1.0870   34.4540 N.3   235  ARG235     -0.1245
    123  CA        34.9970   -1.0300   35.1550 C.3   235  ARG235      0.1563
    124  C         34.0290   -0.4160   34.1820 C.2   235  ARG235      0.2260
    125  O         34.2020    0.7380   33.8080 O.2   235  ARG235     -0.2867
    126  CB        35.1450   -0.1960   36.4270 C.3   235  ARG235      0.0307
    127  CG        33.8460   -0.0180   37.1970 C.3   235  ARG235      0.0489
    128  CD        34.0390    0.7790   38.5120 C.3   235  ARG235      0.2205
    129  NE        32.8000    0.8580   39.3190 N.pl3 235  ARG235     -0.0865
    130  CZ        31.8560    1.7980   39.1390 C.cat 235  ARG235      0.5346
    131  NH1       31.9490    2.7760   38.2260 N.pl3 235  ARG235      0.1354
    132  NH2       30.7800    1.7760   39.9120 N.pl3 235  ARG235      0.1354
    133  N         29.7820   -0.1700   32.3140 N.3   237  HIS237     -0.1241
    134  CA        28.3280   -0.3940   32.3750 C.3   237  HIS237      0.1621
    135  C         27.8750   -1.4320   31.3450 C.2   237  HIS237      0.2264
    136  O         27.0820   -2.3130   31.6450 O.2   237  HIS237     -0.2867
    137  CB        27.5200    0.8760   32.1330 C.3   237  HIS237      0.0745
    138  CG        27.8980    1.9270   33.1210 C.ar  237  HIS237      0.0817
    139  ND1       29.0280    2.7170   32.9320 N.ar  237  HIS237     -0.2268
    140  CD2       27.3030    2.2750   34.2950 C.ar  237  HIS237      0.1154
    141  CE1       29.0890    3.5520   33.9750 C.ar  237  HIS237      0.1986
    142  NE2       28.0760    3.2880   34.8180 N.ar  237  HIS237     -0.2212
@<TRIPOS>BOND
     1   116   115    2
     2   115   114    1
     3   112   111    1
     4   135   136    2
     5   135   134    1
     6   113   114    1
     7   108   109    1
     8   108   111    1
     9   108   107    1
    10   109   110    2
    11   114   117    1
    12   137   134    1
    13   137   138    1
    14   133   134    1
    15    25    24    2
    16   117   118    1
    17   139   138   ar
    18   139   141   ar
    19   138   140   ar
    20    82    81    1
    21    24    23    1
    22   125   124    2
    23   141   142   ar
    24    83    81    1
    25    28    27   ar
    26   118   119    1
    27   124   123    1
    28    23    26    1
    29    23    22    1
    30   140   142   ar
    31    19    18    2
    32    81    80    1
    33   105   106    2
    34   105   104    1
    35   122   123    1
    36    27    26    1
    37    27    29   ar
    38    80    77    1
    39   119   120    1
    40   103   104    1
    41   123   126    1
    42    18    22   am
    43    18    17    1
    44    77    78    1
    45    77    76    1
    46     1     2    1
    47   121   120    1
    48    78    79    2
    49   126   127    1
    50    97    98    2
    51    97    96    1
    52     7     5    1
    53     4     3    2
    54     5     2    1
    55     5     6    1
    56    17    16    1
    57    17    20    1
    58    21    20    1
    59   101   100    1
    60    96    95    1
    61    96    99    1
    62   127   128    1
    63     2     3    1
    64   100    99    1
    65   100   102    1
    66   131   130    1
    67   128   129    1
    68    14    13    2
    69    84    85    1
    70    74    73   ar
    71   130   129    2
    72   130   132    1
    73    75    73   ar
    74    73    72    1
    75    13    12    1
    76    13    15   am
    77     8     9    1
    78    12     9    1
    79    69    70    1
    80    69    72    1
    81    69    68    1
    82    70    71    2
    83    85    86    1
    84    85    88    1
    85    92    90   ar
    86    92    94   ar
    87    90    89   ar
    88    86    87    2
    89    11    10    2
    90     9    10    1
    91    94    93   ar
    92    89    88    1
    93    89    91   ar
    94    66    65    1
    95    66    67    1
    96    91    93   ar
    97    65    64    1
    98    45    43   am
    99    37    35   ar
   100    58    57    1
   101    59    57    1
   102    64    61    1
   103    43    44    2
   104    43    42    1
   105    61    62    1
   106    61    60    1
   107    57    54    1
   108    62    63    2
   109    35    34    1
   110    35    36   ar
   111    51    50    1
   112    34    31    1
   113    42    39    1
   114    54    55    1
   115    54    53    1
   116    50    47    1
   117    50    52    1
   118    55    56    2
   119    39    40    1
   120    39    38    1
   121    47    48    1
   122    47    46    1
   123    31    30    1
   124    31    32    1
   125    49    48    2
   126    40    41    2
   127    33    32    2
