@<TRIPOS>MOLECULE
tmp/1eynA00.pdb
 113 111 0 0 0
SMALL
GASTEIGER

@<TRIPOS>ATOM
      1  N        -33.7690    3.6350   84.2870 N.3    86  VAL86      -0.1231
      2  CA       -33.4750    4.2060   82.9690 C.3    86  VAL86       0.1692
      3  C        -32.9490    5.6430   82.9910 C.2    86  VAL86       0.2592
      4  O        -32.4380    6.1230   81.9780 O.2    86  VAL86      -0.2718
      5  CB       -34.7230    4.2320   81.9930 C.3    86  VAL86       0.0266
      6  CG1      -35.4010    2.8540   81.9520 C.3    86  VAL86       0.0020
      7  CG2      -35.7220    5.3130   82.3850 C.3    86  VAL86       0.0020
      8  N        -33.0710    6.3130   84.1360 N.am   87  LYS87      -0.1966
      9  CA       -32.7470    7.7380   84.2100 C.3    87  LYS87       0.1728
     10  C        -31.3290    8.1700   83.8640 C.2    87  LYS87       0.2617
     11  O        -31.1150    9.3530   83.6200 O.2    87  LYS87      -0.2715
     12  CB       -33.1150    8.2780   85.6060 C.3    87  LYS87       0.0311
     13  CG       -32.4380    7.5350   86.7360 C.3    87  LYS87       0.0038
     14  CD       -32.9120    8.0440   88.0990 C.3    87  LYS87       0.0206
     15  CE       -32.0350    7.4440   89.1900 C.3    87  LYS87       0.1093
     16  NZ       -32.3130    7.9820   90.5410 N.3    87  LYS87      -0.1314
     17  N        -30.3700    7.2570   83.8670 N.am   88  THR88      -0.1937
     18  CA       -28.9950    7.6370   83.5160 C.3    88  THR88       0.2028
     19  C        -28.6290    7.1760   82.1040 C.2    88  THR88       0.2642
     20  O        -27.4960    7.4440   81.6450 O.2    88  THR88      -0.2714
     21  CB       -27.9380    7.0100   84.4320 C.3    88  THR88       0.1808
     22  OG1      -27.7990    5.5990   84.1320 O.3    88  THR88      -0.2208
     23  CG2      -28.3440    7.1860   85.9200 C.3    88  THR88       0.0379
     24  N        -29.5740    6.5690   81.3840 N.am   89  MET89      -0.1962
     25  CA       -29.2030    6.0270   80.0650 C.3    89  MET89       0.1736
     26  C        -30.2920    6.0550   78.9970 C.2    89  MET89       0.2616
     27  O        -31.2150    5.2610   79.0310 O.2    89  MET89      -0.2715
     28  CB       -28.7180    4.5930   80.2810 C.3    89  MET89       0.0427
     29  CG       -28.0390    3.9930   79.0210 C.3    89  MET89       0.0599
     30  SD       -27.5590    2.2550   79.3310 S.3    89  MET89      -0.1393
     31  CE       -29.2190    1.4500   79.2500 C.3    89  MET89       0.0692
     32  N        -30.1820    6.9750   78.0450 N.am   90  ARG90      -0.1977
     33  CA       -31.1540    7.0560   76.9970 C.3    90  ARG90       0.1597
     34  C        -31.2950    5.7730   76.1620 C.2    90  ARG90       0.2287
     35  O        -32.3520    5.5210   75.5860 O.2    90  ARG90      -0.2864
     36  CB       -30.8380    8.2320   76.0750 C.3    90  ARG90       0.0334
     37  CG       -31.2500    9.5900   76.6820 C.3    90  ARG90       0.0492
     38  CD       -30.8540   10.6970   75.7280 C.3    90  ARG90       0.2205
     39  NE       -31.3620   12.0150   76.1390 N.pl3  90  ARG90      -0.0865
     40  CZ       -30.8220   12.7380   77.1100 C.cat  90  ARG90       0.5346
     41  NH1      -29.7640   12.2790   77.7880 N.pl3  90  ARG90       0.1354
     42  NH2      -31.2970   13.9440   77.3600 N.pl3  90  ARG90       0.1354
     43  N        -31.8050    2.9490   77.1250 N.3    92  SER92      -0.1202
     44  CA       -32.8270    2.1040   77.7490 C.3    92  SER92       0.2020
     45  C        -34.0300    1.9710   76.8280 C.2    92  SER92       0.2618
     46  O        -34.7620    0.9840   76.8990 O.2    92  SER92      -0.2717
     47  CB       -33.2890    2.7560   79.0510 C.3    92  SER92       0.2103
     48  OG       -33.7240    4.0810   78.7770 O.3    92  SER92      -0.2182
     49  N        -34.2730    2.9700   75.9840 N.am   93  ILE93      -0.1979
     50  CA       -35.4080    2.8830   75.0510 C.3    93  ILE93       0.1595
     51  C        -35.3260    1.6120   74.1680 C.2    93  ILE93       0.2287
     52  O        -36.3360    1.1210   73.6530 O.2    93  ILE93      -0.2864
     53  CB       -35.5040    4.1710   74.1440 C.3    93  ILE93       0.0276
     54  CG1      -36.8260    4.1560   73.3730 C.3    93  ILE93       0.0022
     55  CG2      -34.3490    4.2310   73.1650 C.3    93  ILE93       0.0022
     56  CD1      -38.0950    4.2310   74.3350 C.3    93  ILE93       0.0001
     57  N        -41.4630    1.7050   78.4980 N.3   108  VAL108     -0.1231
     58  CA       -40.2410    2.2890   79.0210 C.3   108  VAL108      0.1692
     59  C        -40.5190    3.6710   79.5740 C.2   108  VAL108      0.2593
     60  O        -41.1950    4.4660   78.9550 O.2   108  VAL108     -0.2718
     61  CB       -39.1690    2.4130   77.9080 C.3   108  VAL108      0.0266
     62  CG1      -37.8650    3.0340   78.5010 C.3   108  VAL108      0.0020
     63  CG2      -38.8360    1.0140   77.3580 C.3   108  VAL108      0.0020
     64  N        -40.0340    3.9370   80.7800 N.am  109  SER109     -0.1938
     65  CA       -40.1510    5.2850   81.3610 C.3   109  SER109      0.2055
     66  C        -39.3930    6.3270   80.4940 C.2   109  SER109      0.2643
     67  O        -38.2990    6.0270   79.9880 O.2   109  SER109     -0.2714
     68  CB       -39.4950    5.3050   82.7680 C.3   109  SER109      0.2130
     69  OG       -39.3050    6.6350   83.2520 O.3   109  SER109     -0.2179
     70  N        -39.9650    7.5310   80.3650 N.am  110  LEU110     -0.1963
     71  CA       -39.3310    8.6610   79.6440 C.3   110  LEU110      0.1713
     72  C        -39.0060    9.8500   80.5930 C.2   110  LEU110      0.2458
     73  O        -39.8740   10.6650   80.9410 O.2   110  LEU110     -0.2730
     74  CB       -40.2400    9.1600   78.5110 C.3   110  LEU110      0.0310
     75  CG       -40.5430    8.1720   77.3870 C.3   110  LEU110      0.0022
     76  CD1      -41.0580    8.9850   76.1550 C.3   110  LEU110      0.0001
     77  CD2      -39.3220    7.4010   76.9830 C.3   110  LEU110      0.0001
     78  N        -37.7580    9.9510   81.0530 N.am  111  PRO111     -0.2716
     79  CA       -37.3730   11.0470   81.9640 C.3   111  PRO111      0.1536
     80  C        -37.5700   12.4510   81.4610 C.2   111  PRO111      0.2599
     81  O        -37.7090   13.3690   82.2740 O.2   111  PRO111     -0.2715
     82  CB       -35.9180   10.7400   82.2730 C.3   111  PRO111      0.0310
     83  CG       -35.9570    9.2160   82.3920 C.3   111  PRO111      0.0237
     84  CD       -36.8010    8.8330   81.1530 C.3   111  PRO111      0.0939
     85  N        -37.5640   12.6320   80.1430 N.am  112  GLY112     -0.1955
     86  CA       -37.7780   13.9600   79.5790 C.3   112  GLY112      0.1869
     87  C        -39.2350   14.2820   79.3220 C.2   112  GLY112      0.2309
     88  O        -39.5740   15.3100   78.7010 O.2   112  GLY112     -0.2863
     89  N        -38.6980   14.7270   69.2600 N.3   119  ARG119     -0.1231
     90  CA       -37.7320   14.0570   70.1260 C.3   119  ARG119      0.1679
     91  C        -37.1680   12.8100   69.4480 C.2   119  ARG119      0.2434
     92  O        -37.7640   12.2730   68.5070 O.2   119  ARG119     -0.2733
     93  CB       -38.4230   13.6390   71.4200 C.3   119  ARG119      0.0321
     94  CG       -39.1700   14.7910   72.0550 C.3   119  ARG119      0.0489
     95  CD       -38.5860   15.1020   73.4160 C.3   119  ARG119      0.2205
     96  NE       -38.8840   14.0040   74.3260 N.pl3 119  ARG119     -0.0865
     97  CZ       -38.6040   13.9990   75.6240 C.cat 119  ARG119      0.5346
     98  NH1      -38.0160   15.0500   76.1770 N.pl3 119  ARG119      0.1354
     99  NH2      -38.8960   12.9270   76.3550 N.pl3 119  ARG119      0.1354
    100  N        -35.9980   12.3540   69.9040 N.am  120  PRO120     -0.2718
    101  CA       -35.3270   11.1620   69.3760 C.3   120  PRO120      0.1535
    102  C        -36.2780    9.9530   69.3300 C.2   120  PRO120      0.2598
    103  O        -36.2930    9.2150   68.3350 O.2   120  PRO120     -0.2715
    104  CB       -34.1950   10.9400   70.3800 C.3   120  PRO120      0.0310
    105  CG       -33.7910   12.3400   70.6980 C.3   120  PRO120      0.0237
    106  CD       -35.1250   13.0610   70.8640 C.3   120  PRO120      0.0939
    107  N        -37.0710    9.7870   70.3920 N.am  121  VAL121     -0.1978
    108  CA       -38.0230    8.6670   70.5180 C.3   121  VAL121      0.1596
    109  C        -39.0960    8.6340   69.4320 C.2   121  VAL121      0.2287
    110  O        -39.6560    7.5770   69.1310 O.2   121  VAL121     -0.2864
    111  CB       -38.7250    8.6720   71.8820 C.3   121  VAL121      0.0276
    112  CG1      -39.7660    9.7770   71.9460 C.3   121  VAL121      0.0022
    113  CG2      -39.3890    7.3350   72.1210 C.3   121  VAL121      0.0022
@<TRIPOS>BOND
     1   103   102    2
     2    92    91    2
     3   110   109    2
     4    89    90    1
     5   102   101    1
     6   102   107   am
     7   101   100    1
     8   101   104    1
     9   109   108    1
    10    91   100   am
    11    91    90    1
    12   100   106    1
    13    90    93    1
    14   104   105    1
    15   107   108    1
    16   108   111    1
    17   105   106    1
    18    93    94    1
    19   111   112    1
    20   111   113    1
    21    94    95    1
    22    55    53    1
    23    54    53    1
    24    54    56    1
    25    95    96    1
    26    52    51    2
    27    53    50    1
    28    51    50    1
    29    96    97    2
    30    50    49    1
    31    35    34    2
    32    97    98    1
    33    97    99    1
    34    38    39    1
    35    38    37    1
    36    49    45   am
    37    36    37    1
    38    36    33    1
    39    39    40    2
    40    76    75    1
    41    34    33    1
    42    45    46    2
    43    45    44    1
    44    77    75    1
    45    33    32    1
    46    40    42    1
    47    40    41    1
    48    43    44    1
    49    63    61    1
    50    75    74    1
    51    44    47    1
    52    61    62    1
    53    61    58    1
    54    32    26   am
    55    57    58    1
    56    74    71    1
    57    88    87    2
    58    48    47    1
    59    60    59    2
    60    26    27    2
    61    26    25    1
    62    29    30    1
    63    29    28    1
    64    58    59    1
    65    31    30    1
    66    87    86    1
    67    59    64   am
    68    86    85    1
    69    71    70    1
    70    71    72    1
    71    67    66    2
    72    25    28    1
    73    25    24    1
    74    85    80   am
    75    70    66   am
    76    66    65    1
    77    72    73    2
    78    72    78   am
    79    64    65    1
    80    78    84    1
    81    78    79    1
    82    84    83    1
    83    65    68    1
    84    24    19   am
    85    80    79    1
    86    80    81    2
    87    20    19    2
    88     6     5    1
    89    79    82    1
    90     4     3    2
    91     5     7    1
    92     5     2    1
    93    19    18    1
    94    82    83    1
    95    68    69    1
    96     2     3    1
    97     2     1    1
    98     3     8   am
    99    18    17    1
   100    18    21    1
   101    11    10    2
   102    10    17   am
   103    10     9    1
   104    22    21    1
   105     8     9    1
   106     9    12    1
   107    21    23    1
   108    12    13    1
   109    13    14    1
   110    14    15    1
   111    15    16    1
