@<TRIPOS>MOLECULE
tmp/1eyrB00.pdb
 157 148 0 0 0
SMALL
GASTEIGER

@<TRIPOS>ATOM
      1  N         11.5490    6.5870   19.6490 N.3     9  LEU9       -0.1245
      2  CA        11.8150    7.9970   19.8730 C.3     9  LEU9        0.1561
      3  C         13.2220    8.1220   20.4300 C.2     9  LEU9        0.2260
      4  O         13.5160    7.6270   21.5160 O.2     9  LEU9       -0.2867
      5  CB        10.8080    8.5920   20.8550 C.3     9  LEU9        0.0270
      6  CG         9.3530    8.6090   20.3780 C.3     9  LEU9        0.0019
      7  CD1        8.4970    9.3770   21.3850 C.3     9  LEU9        0.0001
      8  CD2        9.2590    9.2580   18.9950 C.3     9  LEU9        0.0001
      9  N         15.5460   11.2760   20.7720 N.3    11  ARG11      -0.1245
     10  CA        16.0290   12.6370   20.6450 C.3    11  ARG11       0.1563
     11  C         17.5060   12.5960   21.0600 C.2    11  ARG11       0.2260
     12  O         17.9180   11.7320   21.8310 O.2    11  ARG11      -0.2867
     13  CB        15.2150   13.5750   21.5280 C.3    11  ARG11       0.0307
     14  CG        15.4680   13.4270   22.9880 C.3    11  ARG11       0.0489
     15  CD        14.4160   14.1940   23.7440 C.3    11  ARG11       0.2205
     16  NE        14.8680   14.4860   25.0920 N.pl3  11  ARG11      -0.0865
     17  CZ        14.0670   14.8380   26.0850 C.cat  11  ARG11       0.5346
     18  NH1       12.7570   14.9330   25.8780 N.pl3  11  ARG11       0.1354
     19  NH2       14.5840   15.1100   27.2790 N.pl3  11  ARG11       0.1354
     20  N         19.5730   14.9670   22.7630 N.3    13  ASN13      -0.1225
     21  CA        19.9470   15.4110   24.0990 C.3    13  ASN13       0.1785
     22  C         19.1420   14.7070   25.1760 C.2    13  ASN13       0.2598
     23  O         17.9930   14.3200   24.9580 O.2    13  ASN13      -0.2718
     24  CB        19.7540   16.9160   24.2340 C.3    13  ASN13       0.1169
     25  CG        20.9230   17.6990   23.6910 C.2    13  ASN13       0.2627
     26  OD1       20.8950   18.9300   23.6550 O.2    13  ASN13      -0.2716
     27  ND2       21.9710   16.9900   23.2740 N.am   13  ASN13      -0.0877
     28  N         19.7620   14.5400   26.3390 N.am   14  SER14      -0.1938
     29  CA        19.1110   13.9010   27.4770 C.3    14  SER14       0.2055
     30  C         19.4330   14.6650   28.7620 C.2    14  SER14       0.2642
     31  O         20.5480   15.1680   28.9350 O.2    14  SER14      -0.2714
     32  CB        19.5820   12.4560   27.6140 C.3    14  SER14       0.2130
     33  OG        19.2010   11.9370   28.8770 O.3    14  SER14      -0.2179
     34  N         18.4580   14.7570   29.6610 N.am   15  LYS15      -0.1977
     35  CA        18.6640   15.4590   30.9280 C.3    15  LYS15       0.1596
     36  C         19.9160   14.9020   31.6060 C.2    15  LYS15       0.2287
     37  O         20.9130   15.6100   31.7700 O.2    15  LYS15      -0.2864
     38  CB        17.4450   15.2790   31.8300 C.3    15  LYS15       0.0298
     39  CG        16.1780   15.9460   31.2740 C.3    15  LYS15       0.0038
     40  CD        14.9710   15.6640   32.1950 C.3    15  LYS15       0.0206
     41  CE        13.7930   15.8410   31.2710 C.3    15  LYS15       0.1093
     42  NZ        12.4810   15.6820   31.9170 N.3    15  LYS15      -0.1314
     43  N         22.8030   10.3240   25.5020 N.3    20  LYS20      -0.1231
     44  CA        22.4320    9.0420   26.0810 C.3    20  LYS20       0.1693
     45  C         22.0820    7.9390   25.0840 C.2    20  LYS20       0.2592
     46  O         22.5870    6.8170   25.1930 O.2    20  LYS20      -0.2718
     47  CB        21.2580    9.2420   27.0360 C.3    20  LYS20       0.0285
     48  CG        20.7780    7.9720   27.7080 C.3    20  LYS20       0.0035
     49  CD        19.7670    8.2700   28.8080 C.3    20  LYS20       0.0206
     50  CE        18.4820    8.8470   28.2490 C.3    20  LYS20       0.1093
     51  NZ        17.4570    8.9580   29.3240 N.3    20  LYS20      -0.1314
     52  N         21.2160    8.2580   24.1230 N.am   21  ASN21      -0.1974
     53  CA        20.7780    7.2800   23.1350 C.3    21  ASN21       0.1688
     54  C         21.8950    6.7080   22.2780 C.2    21  ASN21       0.2292
     55  O         21.7200    5.6590   21.6490 O.2    21  ASN21      -0.2864
     56  CB        19.6700    7.8770   22.2580 C.3    21  ASN21       0.1181
     57  CG        18.3830    8.0940   23.0300 C.2    21  ASN21       0.2629
     58  OD1       18.0950    7.3620   23.9640 O.2    21  ASN21      -0.2716
     59  ND2       17.6000    9.0860   22.6360 N.am   21  ASN21      -0.0877
     60  N         12.4220   15.1390   13.6610 N.3    69  ARG69      -0.1245
     61  CA        11.5210   15.8890   14.5330 C.3    69  ARG69       0.1563
     62  C         11.9540   17.3340   14.6980 C.2    69  ARG69       0.2260
     63  O         13.1340   17.6260   14.8140 O.2    69  ARG69      -0.2867
     64  CB        11.4950   15.2620   15.9230 C.3    69  ARG69       0.0307
     65  CG        10.2130   14.5760   16.3050 C.3    69  ARG69       0.0489
     66  CD        10.2750   14.1800   17.7700 C.3    69  ARG69       0.2205
     67  NE        11.2790   13.1510   18.0260 N.pl3  69  ARG69      -0.0865
     68  CZ        11.6770   12.7980   19.2460 C.cat  69  ARG69       0.5346
     69  NH1       11.1680   13.4080   20.3110 N.pl3  69  ARG69       0.1354
     70  NH2       12.5340   11.7990   19.4060 N.pl3  69  ARG69       0.1354
     71  N          9.2380   19.5510   19.1490 N.3    73  LEU73      -0.1231
     72  CA         8.7830   18.2140   19.5060 C.3    73  LEU73       0.1693
     73  C          9.8800   17.3580   20.1470 C.2    73  LEU73       0.2592
     74  O          9.6610   16.1900   20.4450 O.2    73  LEU73      -0.2718
     75  CB         8.2240   17.4910   18.2790 C.3    73  LEU73       0.0284
     76  CG         6.8420   17.9430   17.8160 C.3    73  LEU73       0.0019
     77  CD1        6.4140   17.1000   16.6190 C.3    73  LEU73       0.0001
     78  CD2        5.8480   17.8040   18.9570 C.3    73  LEU73       0.0001
     79  N         11.0510   17.9450   20.3640 N.am   74  ALA74      -0.1966
     80  CA        12.1570   17.2160   20.9660 C.3    74  ALA74       0.1728
     81  C         12.6980   17.9200   22.1980 C.2    74  ALA74       0.2616
     82  O         13.8030   17.6260   22.6410 O.2    74  ALA74      -0.2715
     83  CB        13.2730   17.0190   19.9490 C.3    74  ALA74       0.0334
     84  N         11.9200   18.8520   22.7430 N.am   75  SER75      -0.1950
     85  CA        12.3160   19.5860   23.9400 C.3    75  SER75       0.1924
     86  C         12.0590   18.7310   25.1780 C.2    75  SER75       0.2314
     87  O         11.4340   17.6710   25.0940 O.2    75  SER75      -0.2863
     88  CB        11.5190   20.8860   24.0590 C.3    75  SER75       0.2116
     89  OG        10.1420   20.6230   24.2740 O.3    75  SER75      -0.2180
     90  N          8.4410   18.0040   25.7270 N.3    78  ALA78      -0.1231
     91  CA         7.7370   17.3640   24.6200 C.3    78  ALA78       0.1694
     92  C          7.2280   15.9800   25.0150 C.2    78  ALA78       0.2593
     93  O          7.9960   15.1090   25.4210 O.2    78  ALA78      -0.2718
     94  CB         8.6580   17.2580   23.4000 C.3    78  ALA78       0.0304
     95  N          5.9240   15.7850   24.8990 N.am   79  SER79      -0.1938
     96  CA         5.3350   14.4890   25.2390 C.3    79  SER79       0.2055
     97  C          5.7150   13.4090   24.2080 C.2    79  SER79       0.2643
     98  O          5.8160   13.6800   23.0030 O.2    79  SER79      -0.2714
     99  CB         3.8100   14.5950   25.2920 C.3    79  SER79       0.2130
    100  OG         3.2910   14.8200   23.9910 O.3    79  SER79      -0.2179
    101  N          5.9250   12.1900   24.6860 N.am   80  SER80      -0.1949
    102  CA         6.2390   11.0970   23.7800 C.3    80  SER80       0.1924
    103  C          5.0500   10.8310   22.8560 C.2    80  SER80       0.2314
    104  O          5.2360   10.4690   21.6870 O.2    80  SER80      -0.2863
    105  CB         6.5770    9.8180   24.5580 C.3    80  SER80       0.2116
    106  OG         7.7060   10.0110   25.3980 O.3    80  SER80      -0.2180
    107  N          5.2030   12.8280   19.9590 N.3    83  GLY83      -0.1225
    108  CA         6.3060   12.3380   19.1520 C.3    83  GLY83       0.1811
    109  C          5.8400   11.2280   18.2280 C.2    83  GLY83       0.2280
    110  O          6.1220   11.2540   17.0280 O.2    83  GLY83      -0.2866
    111  N         11.3770    2.3780   23.5610 N.3   102  GLN102     -0.1231
    112  CA        12.3930    3.3050   24.0420 C.3   102  GLN102      0.1683
    113  C         13.7900    2.6870   24.1210 C.2   102  GLN102      0.2434
    114  O         13.9550    1.5570   24.5860 O.2   102  GLN102     -0.2733
    115  CB        11.9850    3.8330   25.4180 C.3   102  GLN102      0.0380
    116  CG        10.6100    4.4270   25.4150 C.3   102  GLN102      0.0905
    117  CD        10.2620    5.0810   26.7210 C.2   102  GLN102      0.2608
    118  OE1        9.4970    6.0480   26.7530 O.2   102  GLN102     -0.2717
    119  NE2       10.8090    4.5590   27.8140 N.am  102  GLN102     -0.0878
    120  N         14.8140    3.4160   23.6520 N.am  103  PRO103     -0.2718
    121  CA        16.1680    2.8500   23.7230 C.3   103  PRO103      0.1535
    122  C         16.7030    2.7130   25.1520 C.2   103  PRO103      0.2599
    123  O         17.6910    2.0010   25.3840 O.2   103  PRO103     -0.2715
    124  CB        17.0080    3.8090   22.8670 C.3   103  PRO103      0.0310
    125  CG        16.1870    5.0310   22.7550 C.3   103  PRO103      0.0237
    126  CD        14.7720    4.5550   22.7200 C.3   103  PRO103      0.0939
    127  N         16.0460    3.3810   26.1020 N.am  104  THR104     -0.1951
    128  CA        16.4520    3.3100   27.5020 C.3   104  THR104      0.1897
    129  C         16.1480    1.9570   28.1630 C.2   104  THR104      0.2313
    130  O         16.4020    1.7630   29.3470 O.2   104  THR104     -0.2863
    131  CB        15.8140    4.4510   28.3200 C.3   104  THR104      0.1794
    132  OG1       14.4190    4.5620   27.9980 O.3   104  THR104     -0.2208
    133  CG2       16.5210    5.7730   28.0060 C.3   104  THR104      0.0378
    134  N         16.1960    0.1930   33.1770 N.3   202  ASP202     -0.1225
    135  CA        16.0070    1.4190   32.4120 C.3   202  ASP202      0.1805
    136  C         17.2080    2.3540   32.5700 C.2   202  ASP202      0.2598
    137  O         17.4720    2.8550   33.6680 O.2   202  ASP202     -0.2718
    138  CB        14.7250    2.1050   32.8820 C.3   202  ASP202      0.1424
    139  CG        14.5560    3.4790   32.2920 C.2   202  ASP202      0.3668
    140  OD1       14.6510    3.6160   31.0540 O.co2 202  ASP202     -0.2456
    141  OD2       14.3310    4.4270   33.0730 O.co2 202  ASP202     -0.2456
    142  N         17.9320    2.5910   31.4760 N.am  203  ILE203     -0.1966
    143  CA        19.1160    3.4480   31.5310 C.3   203  ILE203      0.1727
    144  C         18.8410    4.9270   31.7800 C.2   203  ILE203      0.2616
    145  O         18.1710    5.5950   30.9910 O.2   203  ILE203     -0.2715
    146  CB        19.9900    3.3260   30.2480 C.3   203  ILE203      0.0290
    147  CG1       20.8770    2.0790   30.3110 C.3   203  ILE203      0.0022
    148  CG2       20.9210    4.5130   30.1440 C.3   203  ILE203      0.0023
    149  CD1       20.1500    0.8000   30.5040 C.3   203  ILE203      0.0001
    150  N         19.3730    5.4380   32.8850 N.am  204  ASP204     -0.1971
    151  CA        19.2010    6.8410   33.2090 C.3   204  ASP204      0.1709
    152  C         20.5170    7.4820   33.6620 C.2   204  ASP204      0.2293
    153  O         20.7630    8.6630   33.3990 O.2   204  ASP204     -0.2864
    154  CB        18.1340    7.0090   34.2850 C.3   204  ASP204      0.1436
    155  CG        17.5370    8.4010   34.2850 C.2   204  ASP204      0.3671
    156  OD1       18.2560    9.3700   34.6320 O.co2 204  ASP204     -0.2456
    157  OD2       16.3460    8.5250   33.9190 O.co2 204  ASP204     -0.2456
@<TRIPOS>BOND
     1    60    61    1
     2    61    62    1
     3    61    64    1
     4    62    63    2
     5    64    65    1
     6    65    66    1
     7    77    76    1
     8   110   109    2
     9    66    67    1
    10    76    75    1
    11    76    78    1
    12    67    68    2
    13   109   108    1
    14    75    72    1
    15     8     6    1
    16    71    72    1
    17   108   107    1
    18    68    70    1
    19    68    69    1
    20    72    73    1
    21     1     2    1
    22     2     3    1
    23     2     5    1
    24    83    80    1
    25    73    79   am
    26    73    74    2
    27    79    80    1
    28     6     5    1
    29     6     7    1
    30     3     4    2
    31    10     9    1
    32    10    11    1
    33    10    13    1
    34    80    81    1
    35    11    12    2
    36    13    14    1
    37    55    54    2
    38   104   103    2
    39    81    82    2
    40    81    84   am
    41    56    57    1
    42    56    53    1
    43    54    53    1
    44    59    57   am
    45   126   125    1
    46   126   120    1
    47    84    85    1
    48   125   124    1
    49    20    21    1
    50   103   102    1
    51   124   121    1
    52    14    15    1
    53    98    97    2
    54    57    58    2
    55    53    52    1
    56    27    25   am
    57    94    91    1
    58   111   112    1
    59   120   121    1
    60   120   113   am
    61    26    25    2
    62    25    24    1
    63   121   122    1
    64    15    16    1
    65   102   105    1
    66   102   101    1
    67    85    88    1
    68    85    86    1
    69   100    99    1
    70   112   113    1
    71   112   115    1
    72    88    89    1
    73    21    24    1
    74    21    22    1
    75   113   114    2
    76    52    45   am
    77    97   101   am
    78    97    96    1
    79   105   106    1
    80    91    92    1
    81    91    90    1
    82    95    92   am
    83    95    96    1
    84    23    22    2
    85    92    93    2
    86    45    46    2
    87    45    44    1
    88    16    17    2
    89    87    86    2
    90   122   123    2
    91   122   127   am
    92    22    28   am
    93    96    99    1
    94   116   115    1
    95   116   117    1
    96    43    44    1
    97    18    17    1
    98    44    47    1
    99    17    19    1
   100   127   128    1
   101    28    29    1
   102   117   118    2
   103   117   119   am
   104    47    48    1
   105    29    32    1
   106    29    30    1
   107   128   129    1
   108   128   131    1
   109    32    33    1
   110    48    49    1
   111   132   131    1
   112   133   131    1
   113   129   130    2
   114    50    49    1
   115    50    51    1
   116    30    31    2
   117    30    34   am
   118    34    35    1
   119   148   146    1
   120   146   147    1
   121   146   143    1
   122   147   149    1
   123    35    36    1
   124    35    38    1
   125   145   144    2
   126   140   139   ar
   127    41    42    1
   128    41    40    1
   129    39    38    1
   130    39    40    1
   131   142   143    1
   132   142   136   am
   133   143   144    1
   134    36    37    2
   135   144   150   am
   136   139   138    1
   137   139   141   ar
   138   135   136    1
   139   135   138    1
   140   135   134    1
   141   136   137    2
   142   150   151    1
   143   151   152    1
   144   151   154    1
   145   153   152    2
   146   157   155   ar
   147   154   155    1
   148   155   156   ar
