@<TRIPOS>MOLECULE
tmp/1eysB08.pdb
 227 222 0 0 0
SMALL
GASTEIGER

@<TRIPOS>ATOM
      1  N         21.2130   49.3890   26.6020 N.3    41  PHE41      -0.1227
      2  CA        20.1730   48.4490   26.2310 C.3    41  PHE41       0.1736
      3  C         18.9720   48.6450   27.1300 C.2    41  PHE41       0.2596
      4  O         17.8450   48.6890   26.6580 O.2    41  PHE41      -0.2718
      5  CB        20.6760   47.0210   26.3830 C.3    41  PHE41       0.0547
      6  CG        21.4360   46.5030   25.1880 C.ar   41  PHE41      -0.0202
      7  CD1       22.7470   46.0680   25.3180 C.ar   41  PHE41      -0.0042
      8  CD2       20.8220   46.4080   23.9440 C.ar   41  PHE41      -0.0042
      9  CE1       23.4330   45.5440   24.2320 C.ar   41  PHE41      -0.0003
     10  CE2       21.4970   45.8850   22.8500 C.ar   41  PHE41      -0.0003
     11  CZ        22.8050   45.4510   22.9920 C.ar   41  PHE41      -0.0000
     12  N         19.2190   48.7710   28.4290 N.am   42  THR42      -0.1953
     13  CA        18.1580   48.9610   29.3990 C.3    42  THR42       0.1897
     14  C         17.3430   50.1910   29.1100 C.2    42  THR42       0.2313
     15  O         16.1300   50.0950   28.9610 O.2    42  THR42      -0.2863
     16  CB        18.7050   49.0970   30.7960 C.3    42  THR42       0.1794
     17  OG1       19.3550   47.8840   31.1620 O.3    42  THR42      -0.2208
     18  CG2       17.5910   49.3690   31.7720 C.3    42  THR42       0.0378
     19  N         15.4320   50.1180   26.2240 N.3    45  GLY45      -0.1210
     20  CA        14.4600   49.0930   26.5420 C.3    45  GLY45       0.1956
     21  C         13.2940   49.6640   27.2970 C.2    45  GLY45       0.2611
     22  O         12.1530   49.5010   26.8900 O.2    45  GLY45      -0.2717
     23  N         13.5830   50.3300   28.4050 N.am   46  VAL46      -0.1979
     24  CA        12.5630   50.9410   29.2370 C.3    46  VAL46       0.1595
     25  C         11.8540   52.0570   28.4950 C.2    46  VAL46       0.2287
     26  O         10.6270   52.1100   28.4780 O.2    46  VAL46      -0.2864
     27  CB        13.1820   51.5020   30.5180 C.3    46  VAL46       0.0276
     28  CG1       12.2810   52.5830   31.1280 C.3    46  VAL46       0.0022
     29  CG2       13.4100   50.3740   31.5030 C.3    46  VAL46       0.0022
     30  N          9.2690   50.7460   26.4130 N.3    49  ILE49      -0.1245
     31  CA         8.1450   50.1960   27.1370 C.3    49  ILE49       0.1561
     32  C          7.2520   51.3470   27.5520 C.2    49  ILE49       0.2260
     33  O          6.0480   51.1820   27.6840 O.2    49  ILE49      -0.2867
     34  CB         8.6150   49.4130   28.3670 C.3    49  ILE49       0.0252
     35  CG1        9.1970   48.0710   27.9280 C.3    49  ILE49       0.0019
     36  CG2        7.4640   49.1780   29.3260 C.3    49  ILE49       0.0019
     37  CD1        9.8290   47.2920   29.0380 C.3    49  ILE49       0.0001
     38  N         12.2900   45.5680   22.0200 N.3    97  ILE97      -0.1245
     39  CA        12.4710   45.4360   23.4610 C.3    97  ILE97       0.1561
     40  C         13.1060   44.1100   23.8380 C.2    97  ILE97       0.2260
     41  O         13.8870   44.0390   24.7690 O.2    97  ILE97      -0.2867
     42  CB        11.1460   45.5390   24.1850 C.3    97  ILE97       0.0252
     43  CG1       10.5150   46.8910   23.8980 C.3    97  ILE97       0.0019
     44  CG2       11.3480   45.3610   25.6600 C.3    97  ILE97       0.0019
     45  CD1        9.0750   46.9710   24.2750 C.3    97  ILE97       0.0001
     46  N         16.7610   44.1620   23.2810 N.3   100  CYS100     -0.1221
     47  CA        17.3520   44.9480   24.3540 C.3   100  CYS100      0.1808
     48  C         17.4270   44.1690   25.6490 C.2   100  CYS100      0.2601
     49  O         18.4050   44.2720   26.3680 O.2   100  CYS100     -0.2717
     50  CB        16.5490   46.2110   24.5980 C.3   100  CYS100      0.0970
     51  SG        16.4980   47.3220   23.1870 S.3   100  CYS100     -0.0800
     52  N         16.3870   43.4110   25.9680 N.am  101  ALA101     -0.1979
     53  CA        16.3810   42.6410   27.2040 C.3   101  ALA101      0.1597
     54  C         17.4920   41.6300   27.1720 C.2   101  ALA101      0.2287
     55  O         18.1510   41.4020   28.1730 O.2   101  ALA101     -0.2864
     56  CB        15.0490   41.9410   27.3870 C.3   101  ALA101      0.0319
     57  N         20.6860   43.4650   27.3990 N.3   104  ALA104     -0.1231
     58  CA        20.8240   43.9830   28.7470 C.3   104  ALA104      0.1694
     59  C         21.2120   42.9030   29.7250 C.2   104  ALA104      0.2592
     60  O         22.0030   43.1470   30.6300 O.2   104  ALA104     -0.2718
     61  CB        19.5310   44.6290   29.1840 C.3   104  ALA104      0.0304
     62  N         20.6280   41.7200   29.5650 N.am  105  PHE105     -0.1976
     63  CA        20.9070   40.5950   30.4420 C.3   105  PHE105      0.1639
     64  C         22.2740   39.9970   30.1940 C.2   105  PHE105      0.2290
     65  O         22.9770   39.6390   31.1350 O.2   105  PHE105     -0.2864
     66  CB        19.8720   39.5030   30.2460 C.3   105  PHE105      0.0560
     67  CG        18.4750   39.9350   30.5340 C.ar  105  PHE105     -0.0200
     68  CD1       18.2180   40.9810   31.4000 C.ar  105  PHE105     -0.0042
     69  CD2       17.4060   39.2810   29.9450 C.ar  105  PHE105     -0.0042
     70  CE1       16.9200   41.3680   31.6740 C.ar  105  PHE105     -0.0003
     71  CE2       16.1120   39.6610   30.2140 C.ar  105  PHE105     -0.0003
     72  CZ        15.8650   40.7060   31.0790 C.ar  105  PHE105     -0.0000
     73  N         24.9860   42.1760   31.6580 N.3   108  TRP108     -0.1241
     74  CA        25.0090   42.0730   33.1140 C.3   108  TRP108      0.1605
     75  C         25.8660   40.8900   33.5150 C.2   108  TRP108      0.2264
     76  O         26.7050   40.9910   34.4050 O.2   108  TRP108     -0.2867
     77  CB        23.5820   41.9200   33.6480 C.3   108  TRP108      0.0550
     78  CG        23.4540   41.9920   35.1300 C.ar  108  TRP108      0.0003
     79  CD1       23.5550   40.9600   36.0010 C.ar  108  TRP108      0.0946
     80  CD2       23.1490   43.1490   35.9120 C.ar  108  TRP108      0.0152
     81  NE1       23.3280   41.3910   37.2810 N.ar  108  TRP108     -0.2442
     82  CE2       23.0730   42.7340   37.2540 C.ar  108  TRP108      0.0810
     83  CE3       22.9300   44.4940   35.6110 C.ar  108  TRP108      0.0012
     84  CZ2       22.7860   43.6160   38.2950 C.ar  108  TRP108      0.0191
     85  CZ3       22.6470   45.3700   36.6470 C.ar  108  TRP108      0.0001
     86  CH2       22.5770   44.9250   37.9720 C.ar  108  TRP108      0.0015
     87  N         29.5580   40.6670   35.3360 N.3   112  GLU112     -0.1245
     88  CA        29.8620   39.9240   36.5570 C.3   112  GLU112      0.1567
     89  C         31.1910   39.2240   36.3460 C.2   112  GLU112      0.2260
     90  O         31.8990   38.9180   37.2950 O.2   112  GLU112     -0.2867
     91  CB        28.7770   38.8920   36.8590 C.3   112  GLU112      0.0388
     92  CG        27.4440   39.4990   37.2710 C.3   112  GLU112      0.1160
     93  CD        26.3730   38.4750   37.5820 C.2   112  GLU112      0.3649
     94  OE1       25.3850   38.8360   38.2440 O.co2 112  GLU112     -0.2457
     95  OE2       26.4910   37.3190   37.1450 O.co2 112  GLU112     -0.2457
     96  N         28.7700   32.4140   39.7210 N.3   125  VAL125     -0.1245
     97  CA        27.5950   33.2760   39.6620 C.3   125  VAL125      0.1561
     98  C         27.1920   33.6280   38.2270 C.2   125  VAL125      0.2260
     99  O         26.0670   33.3740   37.8240 O.2   125  VAL125     -0.2867
    100  CB        27.7930   34.5300   40.5110 C.3   125  VAL125      0.0252
    101  CG1       26.6670   35.4920   40.2840 C.3   125  VAL125      0.0019
    102  CG2       27.8700   34.1510   41.9740 C.3   125  VAL125      0.0019
    103  N         25.9220   30.4430   36.5180 N.3   128  ALA128     -0.1231
    104  CA        24.5910   30.1020   36.9830 C.3   128  ALA128      0.1694
    105  C         23.5650   31.0720   36.4260 C.2   128  ALA128      0.2592
    106  O         22.4790   30.6650   36.0150 O.2   128  ALA128     -0.2718
    107  CB        24.5550   30.1160   38.5010 C.3   128  ALA128      0.0304
    108  N         23.9100   32.3530   36.3830 N.am  129  PHE129     -0.1976
    109  CA        22.9850   33.3520   35.8740 C.3   129  PHE129      0.1639
    110  C         22.5960   33.0580   34.4360 C.2   129  PHE129      0.2290
    111  O         21.4240   33.0820   34.0980 O.2   129  PHE129     -0.2864
    112  CB        23.5720   34.7650   36.0180 C.3   129  PHE129      0.0560
    113  CG        22.6880   35.8660   35.4750 C.ar  129  PHE129     -0.0200
    114  CD1       21.3020   35.7670   35.5180 C.ar  129  PHE129     -0.0042
    115  CD2       23.2480   36.9860   34.8940 C.ar  129  PHE129     -0.0042
    116  CE1       20.4880   36.7650   34.9830 C.ar  129  PHE129     -0.0003
    117  CE2       22.4470   37.9870   34.3580 C.ar  129  PHE129     -0.0003
    118  CZ        21.0600   37.8730   34.4030 C.ar  129  PHE129     -0.0000
    119  N         21.8080   30.6640   33.0870 N.3   131  PHE131     -0.1227
    120  CA        20.7730   29.6390   33.0130 C.3   131  PHE131      0.1736
    121  C         19.4160   30.3250   32.9900 C.2   131  PHE131      0.2595
    122  O         18.4940   29.8570   32.3350 O.2   131  PHE131     -0.2718
    123  CB        20.8640   28.6690   34.1910 C.3   131  PHE131      0.0547
    124  CG        21.7120   27.4600   33.9190 C.ar  131  PHE131     -0.0202
    125  CD1       23.0990   27.5460   33.9080 C.ar  131  PHE131     -0.0042
    126  CD2       21.1190   26.2340   33.6620 C.ar  131  PHE131     -0.0042
    127  CE1       23.8780   26.4300   33.6440 C.ar  131  PHE131     -0.0003
    128  CE2       21.8870   25.1160   33.3970 C.ar  131  PHE131     -0.0003
    129  CZ        23.2700   25.2140   33.3880 C.ar  131  PHE131     -0.0000
    130  N         19.3020   31.4520   33.6850 N.am  132  ALA132     -0.1980
    131  CA        18.0560   32.2020   33.7000 C.3   132  ALA132      0.1597
    132  C         17.9080   32.8820   32.3560 C.2   132  ALA132      0.2287
    133  O         16.8150   33.0060   31.8360 O.2   132  ALA132     -0.2864
    134  CB        18.0720   33.2150   34.7970 C.3   132  ALA132      0.0319
    135  N         14.9710   32.3630   29.5820 N.3   136  TYR136     -0.1241
    136  CA        14.3050   33.4930   28.9750 C.3   136  TYR136      0.1605
    137  C         14.4390   33.4060   27.4740 C.2   136  TYR136      0.2264
    138  O         13.4970   33.6710   26.7570 O.2   136  TYR136     -0.2867
    139  CB        14.9110   34.8020   29.4460 C.3   136  TYR136      0.0534
    140  CG        14.4140   35.9860   28.6620 C.ar  136  TYR136     -0.0201
    141  CD1       13.0800   36.3760   28.7190 C.ar  136  TYR136     -0.0009
    142  CD2       15.2690   36.6990   27.8330 C.ar  136  TYR136     -0.0009
    143  CE1       12.6140   37.4500   27.9660 C.ar  136  TYR136      0.0417
    144  CE2       14.8120   37.7760   27.0740 C.ar  136  TYR136      0.0417
    145  CZ        13.4860   38.1400   27.1470 C.ar  136  TYR136      0.1957
    146  OH        13.0350   39.1950   26.4000 O.3   136  TYR136     -0.2866
    147  N          5.9950   35.2210   24.8740 N.3   154  PHE154     -0.1228
    148  CA         5.0720   35.7340   25.8660 C.3   154  PHE154      0.1721
    149  C          5.1250   37.2520   25.8760 C.2   154  PHE154      0.2437
    150  O          6.1760   37.8310   25.6180 O.2   154  PHE154     -0.2733
    151  CB         5.3960   35.1650   27.2460 C.3   154  PHE154      0.0547
    152  CG         6.6810   35.6520   27.8280 C.ar  154  PHE154     -0.0202
    153  CD1        6.7090   36.7810   28.6270 C.ar  154  PHE154     -0.0042
    154  CD2        7.8540   34.9520   27.6280 C.ar  154  PHE154     -0.0042
    155  CE1        7.8820   37.2040   29.2160 C.ar  154  PHE154     -0.0003
    156  CE2        9.0330   35.3720   28.2180 C.ar  154  PHE154     -0.0003
    157  CZ         9.0450   36.4970   29.0110 C.ar  154  PHE154     -0.0000
    158  N          3.9920   37.9140   26.1750 N.am  155  PRO155     -0.2718
    159  CA         3.8630   39.3700   26.2270 C.3   155  PRO155      0.1535
    160  C          4.4850   39.9760   27.4610 C.2   155  PRO155      0.2599
    161  O          4.6380   39.3010   28.4700 O.2   155  PRO155     -0.2715
    162  CB         2.3530   39.5710   26.2330 C.3   155  PRO155      0.0310
    163  CG         1.8710   38.4100   26.9940 C.3   155  PRO155      0.0237
    164  CD         2.6930   37.2720   26.4430 C.3   155  PRO155      0.0939
    165  N          4.8060   41.2640   27.3880 N.am  156  TYR156     -0.1960
    166  CA         5.4190   41.9580   28.5060 C.3   156  TYR156      0.1771
    167  C          4.4160   42.8190   29.2280 C.2   156  TYR156      0.2620
    168  O          4.1470   43.9570   28.8380 O.2   156  TYR156     -0.2715
    169  CB         6.5960   42.8150   28.0510 C.3   156  TYR156      0.0574
    170  CG         7.6890   42.0330   27.3960 C.ar  156  TYR156     -0.0198
    171  CD1        8.4180   42.5760   26.3560 C.ar  156  TYR156     -0.0009
    172  CD2        7.9660   40.7320   27.7840 C.ar  156  TYR156     -0.0009
    173  CE1        9.3910   41.8440   25.7110 C.ar  156  TYR156      0.0417
    174  CE2        8.9450   39.9850   27.1450 C.ar  156  TYR156      0.0417
    175  CZ         9.6500   40.5510   26.1070 C.ar  156  TYR156      0.1957
    176  OH        10.6060   39.8190   25.4460 O.3   156  TYR156     -0.2866
    177  N          3.8680   42.2480   30.2910 N.am  157  GLY157     -0.1940
    178  CA         2.8950   42.9290   31.1110 C.3   157  GLY157      0.2014
    179  C          2.8790   42.1710   32.4090 C.2   157  GLY157      0.2638
    180  O          2.9630   40.9550   32.3890 O.2   157  GLY157     -0.2714
    181  N          2.7910   42.8730   33.5300 N.am  158  ILE158     -0.1977
    182  CA         2.8010   42.2280   34.8280 C.3   158  ILE158      0.1596
    183  C          1.7900   41.1000   34.9450 C.2   158  ILE158      0.2287
    184  O          2.1430   40.0000   35.3560 O.2   158  ILE158     -0.2864
    185  CB         2.6510   43.2530   35.9640 C.3   158  ILE158      0.0276
    186  CG1        3.8040   44.2570   35.8960 C.3   158  ILE158      0.0022
    187  CG2        2.7140   42.5710   37.3000 C.3   158  ILE158      0.0022
    188  CD1        3.7400   45.3800   36.9130 C.3   158  ILE158      0.0001
    189  N          1.1760   38.5850   31.1070 N.3   161  HIS161     -0.1241
    190  CA         1.9900   37.4040   30.8340 C.3   161  HIS161      0.1621
    191  C          1.4670   36.1790   31.5760 C.2   161  HIS161      0.2264
    192  O          1.6900   35.0420   31.1610 O.2   161  HIS161     -0.2867
    193  CB         3.5000   37.6570   31.0560 C.3   161  HIS161      0.0745
    194  CG         3.9840   37.4860   32.4740 C.ar  161  HIS161      0.0817
    195  ND1        3.7620   38.4260   33.4550 N.ar  161  HIS161     -0.2268
    196  CD2        4.7850   36.5500   33.0200 C.ar  161  HIS161      0.1154
    197  CE1        4.4200   38.0770   34.5480 C.ar  161  HIS161      0.1986
    198  NE2        5.0500   36.9480   34.3180 N.ar  161  HIS161     -0.2212
    199  N         12.2310   22.8300   41.7300 N.3   188  PHE188     -0.1241
    200  CA        11.8640   24.0750   42.3760 C.3   188  PHE188      0.1605
    201  C         11.4630   23.8210   43.8130 C.2   188  PHE188      0.2264
    202  O         11.8370   24.5670   44.7110 O.2   188  PHE188     -0.2867
    203  CB        10.7170   24.7390   41.6330 C.3   188  PHE188      0.0534
    204  CG        11.1610   25.6840   40.5680 C.ar  188  PHE188     -0.0203
    205  CD1       10.9170   25.4140   39.2350 C.ar  188  PHE188     -0.0042
    206  CD2       11.8400   26.8420   40.9020 C.ar  188  PHE188     -0.0042
    207  CE1       11.3450   26.2830   38.2460 C.ar  188  PHE188     -0.0003
    208  CE2       12.2700   27.7160   39.9230 C.ar  188  PHE188     -0.0003
    209  CZ        12.0230   27.4370   38.5920 C.ar  188  PHE188     -0.0000
    210  N         18.7690   24.4380   41.8620 N.3   245  ALA245     -0.1231
    211  CA        18.3230   25.6790   41.2580 C.3   245  ALA245      0.1694
    212  C         18.6010   25.7940   39.7880 C.2   245  ALA245      0.2591
    213  O         17.7640   26.2730   39.0450 O.2   245  ALA245     -0.2718
    214  CB        18.9100   26.8290   41.9800 C.3   245  ALA245      0.0304
    215  N         19.7760   25.3740   39.3510 N.am  246  LEU246     -0.1980
    216  CA        20.0890   25.4660   37.9350 C.3   246  LEU246      0.1596
    217  C         19.2650   24.4630   37.1760 C.2   246  LEU246      0.2287
    218  O         18.8100   24.7280   36.0700 O.2   246  LEU246     -0.2864
    219  CB        21.5700   25.2280   37.6930 C.3   246  LEU246      0.0297
    220  CG        22.4480   26.3770   38.1670 C.3   246  LEU246      0.0022
    221  CD1       23.8980   26.0890   37.8650 C.3   246  LEU246      0.0001
    222  CD2       22.0080   27.6390   37.4740 C.3   246  LEU246      0.0001
    223  N         15.8250   25.5890   36.4010 N.3   249  ALA249     -0.1245
    224  CA        15.7950   26.4170   35.2180 C.3   249  ALA249      0.1562
    225  C         15.9330   25.5970   33.9620 C.2   249  ALA249      0.2260
    226  O         15.3000   25.8810   32.9530 O.2   249  ALA249     -0.2867
    227  CB        16.8930   27.4360   35.2790 C.3   249  ALA249      0.0290
@<TRIPOS>BOND
     1    38    39    1
     2    10    11   ar
     3    10     8   ar
     4    11     9   ar
     5    51    50    1
     6    46    47    1
     7    39    40    1
     8    39    42    1
     9    40    41    2
    10    43    42    1
    11    43    45    1
    12     8     6   ar
    13    42    44    1
    14     9     7   ar
    15    47    50    1
    16    47    48    1
    17   147   148    1
    18     6     7   ar
    19     6     5    1
    20   176   175    1
    21   150   149    2
    22    48    52   am
    23    48    49    2
    24   173   175   ar
    25   173   171   ar
    26   148   149    1
    27   148   151    1
    28   149   158   am
    29    52    53    1
    30   175   174   ar
    31   158   159    1
    32   158   164    1
    33    19    20    1
    34   159   162    1
    35   159   160    1
    36     2     5    1
    37     2     1    1
    38     2     3    1
    39   162   163    1
    40   171   170   ar
    41   146   145    1
    42    30    31    1
    43   164   163    1
    44    20    21    1
    45     4     3    2
    46   138   137    2
    47    22    21    2
    48   144   145   ar
    49   144   142   ar
    50     3    12   am
    51    31    32    1
    52    31    34    1
    53   174   172   ar
    54   145   143   ar
    55    54    53    1
    56    54    55    2
    57    53    56    1
    58   151   152    1
    59    21    23   am
    60   165   160   am
    61   165   166    1
    62   170   172   ar
    63   170   169    1
    64    57    58    1
    65   160   161    2
    66   137   136    1
    67    32    33    2
    68   154   152   ar
    69   154   156   ar
    70   152   153   ar
    71   142   140   ar
    72    35    34    1
    73    35    37    1
    74   143   141   ar
    75   169   166    1
    76   156   157   ar
    77    34    36    1
    78    23    24    1
    79    12    13    1
    80    26    25    2
    81    25    24    1
    82   166   167    1
    83   153   155   ar
    84   140   141   ar
    85   140   139    1
    86    58    61    1
    87    58    59    1
    88   168   167    2
    89    15    14    2
    90   136   139    1
    91   136   135    1
    92   157   155   ar
    93    14    13    1
    94   167   177   am
    95    24    27    1
    96    13    16    1
    97    62    59   am
    98    62    63    1
    99    59    60    2
   100    69    71   ar
   101    69    67   ar
   102    64    63    1
   103    64    65    2
   104    71    72   ar
   105    66    63    1
   106    66    67    1
   107   177   178    1
   108    27    28    1
   109    27    29    1
   110    67    68   ar
   111    16    17    1
   112    16    18    1
   113   190   193    1
   114   190   189    1
   115   190   191    1
   116   193   194    1
   117    72    70   ar
   118   178   179    1
   119   192   191    2
   120    68    70   ar
   121    73    74    1
   122   133   132    2
   123   122   121    2
   124   132   131    1
   125   180   179    2
   126   179   181   am
   127   194   196   ar
   128   194   195   ar
   129   226   225    2
   130   121   120    1
   131   121   130   am
   132   120   119    1
   133   120   123    1
   134   196   198   ar
   135    74    75    1
   136    74    77    1
   137   129   128   ar
   138   129   127   ar
   139   128   126   ar
   140   195   197   ar
   141    75    76    2
   142   181   182    1
   143   127   125   ar
   144    77    78    1
   145   126   124   ar
   146   130   131    1
   147   131   134    1
   148   125   124   ar
   149   124   123    1
   150   225   224    1
   151   111   110    2
   152   198   197   ar
   153   117   118   ar
   154   117   115   ar
   155   118   116   ar
   156   110   109    1
   157   182   183    1
   158   182   185    1
   159   115   113   ar
   160   183   184    2
   161   116   114   ar
   162    78    80   ar
   163    78    79   ar
   164   224   227    1
   165   224   223    1
   166    87    88    1
   167   113   114   ar
   168   113   112    1
   169    83    80   ar
   170    83    85   ar
   171   109   112    1
   172   109   108    1
   173   186   185    1
   174   186   188    1
   175    80    82   ar
   176   185   187    1
   177    79    81   ar
   178   106   105    2
   179   218   217    2
   180    89    88    1
   181    89    90    2
   182   108   105   am
   183   105   104    1
   184   103   104    1
   185    88    91    1
   186    85    86   ar
   187    91    92    1
   188   104   107    1
   189    95    93   ar
   190   217   216    1
   191    82    81   ar
   192    82    84   ar
   193    92    93    1
   194   222   220    1
   195    93    94   ar
   196   219   216    1
   197   219   220    1
   198    99    98    2
   199   221   220    1
   200   216   215    1
   201    86    84   ar
   202    98    97    1
   203   207   209   ar
   204   207   205   ar
   205   209   208   ar
   206   213   212    2
   207   205   204   ar
   208   215   212   am
   209    97    96    1
   210    97   100    1
   211   212   211    1
   212   208   206   ar
   213   101   100    1
   214   100   102    1
   215   204   206   ar
   216   204   203    1
   217   211   210    1
   218   211   214    1
   219   203   200    1
   220   199   200    1
   221   200   201    1
   222   201   202    2
