@<TRIPOS>MOLECULE
tmp/1eysB06.pdb
 149 145 0 0 0
SMALL
GASTEIGER

@<TRIPOS>ATOM
      1  N         13.5830   50.3300   28.4050 N.3    46  VAL46      -0.1245
      2  CA        12.5630   50.9410   29.2370 C.3    46  VAL46       0.1561
      3  C         11.8540   52.0570   28.4950 C.2    46  VAL46       0.2260
      4  O         10.6270   52.1100   28.4780 O.2    46  VAL46      -0.2867
      5  CB        13.1820   51.5020   30.5180 C.3    46  VAL46       0.0252
      6  CG1       12.2810   52.5830   31.1280 C.3    46  VAL46       0.0019
      7  CG2       13.4100   50.3740   31.5030 C.3    46  VAL46       0.0019
      8  N          9.2690   50.7460   26.4130 N.3    49  ILE49      -0.1245
      9  CA         8.1450   50.1960   27.1370 C.3    49  ILE49       0.1561
     10  C          7.2520   51.3470   27.5520 C.2    49  ILE49       0.2260
     11  O          6.0480   51.1820   27.6840 O.2    49  ILE49      -0.2867
     12  CB         8.6150   49.4130   28.3670 C.3    49  ILE49       0.0252
     13  CG1        9.1970   48.0710   27.9280 C.3    49  ILE49       0.0019
     14  CG2        7.4640   49.1780   29.3260 C.3    49  ILE49       0.0019
     15  CD1        9.8290   47.2920   29.0380 C.3    49  ILE49       0.0001
     16  N         -0.5230   47.2780   36.4980 N.3    70  TRP70      -0.1241
     17  CA        -0.9390   45.8880   36.3340 C.3    70  TRP70       0.1605
     18  C         -1.4010   45.6020   34.9200 C.2    70  TRP70       0.2264
     19  O         -1.1720   44.5130   34.3970 O.2    70  TRP70      -0.2867
     20  CB        -2.1130   45.5480   37.2500 C.3    70  TRP70       0.0550
     21  CG        -1.8860   45.7130   38.7000 C.ar   70  TRP70       0.0003
     22  CD1       -2.3760   46.7020   39.4870 C.ar   70  TRP70       0.0946
     23  CD2       -1.1570   44.8380   39.5580 C.ar   70  TRP70       0.0152
     24  NE1       -2.0030   46.5030   40.7890 N.ar   70  TRP70      -0.2442
     25  CE2       -1.2480   45.3650   40.8630 C.ar   70  TRP70       0.0810
     26  CE3       -0.4330   43.6580   39.3580 C.ar   70  TRP70       0.0012
     27  CZ2       -0.6440   44.7590   41.9600 C.ar   70  TRP70       0.0191
     28  CZ3        0.1700   43.0490   40.4530 C.ar   70  TRP70       0.0001
     29  CH2        0.0620   43.6040   41.7380 C.ar   70  TRP70       0.0015
     30  N         16.3870   43.4110   25.9680 N.3   101  ALA101     -0.1245
     31  CA        16.3810   42.6410   27.2040 C.3   101  ALA101      0.1562
     32  C         17.4920   41.6300   27.1720 C.2   101  ALA101      0.2260
     33  O         18.1510   41.4020   28.1730 O.2   101  ALA101     -0.2867
     34  CB        15.0490   41.9410   27.3870 C.3   101  ALA101      0.0290
     35  N         20.6280   41.7200   29.5650 N.3   105  PHE105     -0.1241
     36  CA        20.9070   40.5950   30.4420 C.3   105  PHE105      0.1605
     37  C         22.2740   39.9970   30.1940 C.2   105  PHE105      0.2264
     38  O         22.9770   39.6390   31.1350 O.2   105  PHE105     -0.2867
     39  CB        19.8720   39.5030   30.2460 C.3   105  PHE105      0.0534
     40  CG        18.4750   39.9350   30.5340 C.ar  105  PHE105     -0.0203
     41  CD1       18.2180   40.9810   31.4000 C.ar  105  PHE105     -0.0042
     42  CD2       17.4060   39.2810   29.9450 C.ar  105  PHE105     -0.0042
     43  CE1       16.9200   41.3680   31.6740 C.ar  105  PHE105     -0.0003
     44  CE2       16.1120   39.6610   30.2140 C.ar  105  PHE105     -0.0003
     45  CZ        15.8650   40.7060   31.0790 C.ar  105  PHE105     -0.0000
     46  N         14.9710   32.3630   29.5820 N.3   136  TYR136     -0.1241
     47  CA        14.3050   33.4930   28.9750 C.3   136  TYR136      0.1605
     48  C         14.4390   33.4060   27.4740 C.2   136  TYR136      0.2264
     49  O         13.4970   33.6710   26.7570 O.2   136  TYR136     -0.2867
     50  CB        14.9110   34.8020   29.4460 C.3   136  TYR136      0.0534
     51  CG        14.4140   35.9860   28.6620 C.ar  136  TYR136     -0.0201
     52  CD1       13.0800   36.3760   28.7190 C.ar  136  TYR136     -0.0009
     53  CD2       15.2690   36.6990   27.8330 C.ar  136  TYR136     -0.0009
     54  CE1       12.6140   37.4500   27.9660 C.ar  136  TYR136      0.0417
     55  CE2       14.8120   37.7760   27.0740 C.ar  136  TYR136      0.0417
     56  CZ        13.4860   38.1400   27.1470 C.ar  136  TYR136      0.1957
     57  OH        13.0350   39.1950   26.4000 O.3   136  TYR136     -0.2866
     58  N         12.1590   30.8200   25.8440 N.3   139  LEU139     -0.1245
     59  CA        10.7840   31.3080   25.8210 C.3   139  LEU139      0.1561
     60  C         10.5360   32.3530   24.7630 C.2   139  LEU139      0.2260
     61  O          9.5040   32.3480   24.1050 O.2   139  LEU139     -0.2867
     62  CB        10.4210   31.9410   27.1620 C.3   139  LEU139      0.0270
     63  CG        10.0150   31.0760   28.3340 C.3   139  LEU139      0.0019
     64  CD1        9.9770   31.9170   29.5750 C.3   139  LEU139      0.0001
     65  CD2        8.6620   30.4960   28.0510 C.3   139  LEU139      0.0001
     66  N          5.9950   35.2210   24.8740 N.3   154  PHE154     -0.1241
     67  CA         5.0720   35.7340   25.8660 C.3   154  PHE154      0.1605
     68  C          5.1250   37.2520   25.8760 C.2   154  PHE154      0.2264
     69  O          6.1760   37.8310   25.6180 O.2   154  PHE154     -0.2867
     70  CB         5.3960   35.1650   27.2460 C.3   154  PHE154      0.0534
     71  CG         6.6810   35.6520   27.8280 C.ar  154  PHE154     -0.0203
     72  CD1        6.7090   36.7810   28.6270 C.ar  154  PHE154     -0.0042
     73  CD2        7.8540   34.9520   27.6280 C.ar  154  PHE154     -0.0042
     74  CE1        7.8820   37.2040   29.2160 C.ar  154  PHE154     -0.0003
     75  CE2        9.0330   35.3720   28.2180 C.ar  154  PHE154     -0.0003
     76  CZ         9.0450   36.4970   29.0110 C.ar  154  PHE154     -0.0000
     77  N          4.8060   41.2640   27.3880 N.3   156  TYR156     -0.1241
     78  CA         5.4190   41.9580   28.5060 C.3   156  TYR156      0.1605
     79  C          4.4160   42.8190   29.2280 C.2   156  TYR156      0.2264
     80  O          4.1470   43.9570   28.8380 O.2   156  TYR156     -0.2867
     81  CB         6.5960   42.8150   28.0510 C.3   156  TYR156      0.0534
     82  CG         7.6890   42.0330   27.3960 C.ar  156  TYR156     -0.0201
     83  CD1        8.4180   42.5760   26.3560 C.ar  156  TYR156     -0.0009
     84  CD2        7.9660   40.7320   27.7840 C.ar  156  TYR156     -0.0009
     85  CE1        9.3910   41.8440   25.7110 C.ar  156  TYR156      0.0417
     86  CE2        8.9450   39.9850   27.1450 C.ar  156  TYR156      0.0417
     87  CZ         9.6500   40.5510   26.1070 C.ar  156  TYR156      0.1957
     88  OH        10.6060   39.8190   25.4460 O.3   156  TYR156     -0.2866
     89  N          2.7910   42.8730   33.5300 N.3   158  ILE158     -0.1231
     90  CA         2.8010   42.2280   34.8280 C.3   158  ILE158      0.1692
     91  C          1.7900   41.1000   34.9450 C.2   158  ILE158      0.2591
     92  O          2.1430   40.0000   35.3560 O.2   158  ILE158     -0.2718
     93  CB         2.6510   43.2530   35.9640 C.3   158  ILE158      0.0266
     94  CG1        3.8040   44.2570   35.8960 C.3   158  ILE158      0.0019
     95  CG2        2.7140   42.5710   37.3000 C.3   158  ILE158      0.0020
     96  CD1        3.7400   45.3800   36.9130 C.3   158  ILE158      0.0001
     97  N          0.5560   41.3240   34.5150 N.am  159  LEU159     -0.1980
     98  CA        -0.4440   40.2680   34.6050 C.3   159  LEU159      0.1596
     99  C         -0.7800   39.6420   33.2760 C.2   159  LEU159      0.2287
    100  O         -1.1750   38.4870   33.2090 O.2   159  LEU159     -0.2864
    101  CB        -1.7060   40.7770   35.2660 C.3   159  LEU159      0.0297
    102  CG        -1.5740   40.7950   36.7690 C.3   159  LEU159      0.0022
    103  CD1       -2.6400   41.6650   37.3500 C.3   159  LEU159      0.0001
    104  CD2       -1.6940   39.3850   37.2650 C.3   159  LEU159      0.0001
    105  N          1.1760   38.5850   31.1070 N.3   161  HIS161     -0.1226
    106  CA         1.9900   37.4040   30.8340 C.3   161  HIS161      0.1752
    107  C          1.4670   36.1790   31.5760 C.2   161  HIS161      0.2595
    108  O          1.6900   35.0420   31.1610 O.2   161  HIS161     -0.2718
    109  CB         3.5000   37.6570   31.0560 C.3   161  HIS161      0.0759
    110  CG         3.9840   37.4860   32.4740 C.ar  161  HIS161      0.0818
    111  ND1        3.7620   38.4260   33.4550 N.ar  161  HIS161     -0.2268
    112  CD2        4.7850   36.5500   33.0200 C.ar  161  HIS161      0.1154
    113  CE1        4.4200   38.0770   34.5480 C.ar  161  HIS161      0.1986
    114  NE2        5.0500   36.9480   34.3180 N.ar  161  HIS161     -0.2212
    115  N          0.7300   36.4160   32.6520 N.am  162  LEU162     -0.1980
    116  CA         0.1520   35.3250   33.4080 C.3   162  LEU162      0.1596
    117  C         -0.9970   34.7840   32.5880 C.2   162  LEU162      0.2287
    118  O         -1.3300   33.6050   32.6790 O.2   162  LEU162     -0.2864
    119  CB        -0.3390   35.7990   34.7690 C.3   162  LEU162      0.0297
    120  CG         0.7180   35.7970   35.8560 C.3   162  LEU162      0.0022
    121  CD1        1.7510   36.8270   35.5470 C.3   162  LEU162      0.0001
    122  CD2        0.0980   36.1030   37.1670 C.3   162  LEU162      0.0001
    123  N         -0.8870   34.6220   29.4490 N.3   164  TRP164     -0.1227
    124  CA        -0.2250   33.8580   28.4000 C.3   164  TRP164      0.1737
    125  C          0.0660   32.4550   28.8950 C.2   164  TRP164      0.2595
    126  O         -0.2690   31.4740   28.2500 O.2   164  TRP164     -0.2718
    127  CB         1.0790   34.5540   28.0020 C.3   164  TRP164      0.0564
    128  CG         1.8600   33.8620   26.9340 C.ar  164  TRP164      0.0003
    129  CD1        1.7050   34.0020   25.5950 C.ar  164  TRP164      0.0946
    130  CD2        2.9390   32.9480   27.1220 C.ar  164  TRP164      0.0152
    131  NE1        2.6250   33.2370   24.9300 N.ar  164  TRP164     -0.2442
    132  CE2        3.3970   32.5790   25.8480 C.ar  164  TRP164      0.0810
    133  CE3        3.5670   32.4040   28.2460 C.ar  164  TRP164      0.0012
    134  CZ2        4.4480   31.6900   25.6630 C.ar  164  TRP164      0.0191
    135  CZ3        4.6070   31.5200   28.0650 C.ar  164  TRP164      0.0001
    136  CH2        5.0410   31.1730   26.7800 C.ar  164  TRP164      0.0015
    137  N          0.7220   32.3700   30.0330 N.am  165  VAL165     -0.1980
    138  CA         1.0580   31.0980   30.6040 C.3   165  VAL165      0.1595
    139  C         -0.1820   30.2390   30.6990 C.2   165  VAL165      0.2287
    140  O         -0.1870   29.1000   30.2610 O.2   165  VAL165     -0.2864
    141  CB         1.6530   31.2820   31.9770 C.3   165  VAL165      0.0276
    142  CG1        1.9460   29.9630   32.5820 C.3   165  VAL165      0.0022
    143  CG2        2.9230   32.0950   31.8870 C.3   165  VAL165      0.0022
    144  N         12.8040   23.5780   33.1830 N.3   252  SER252     -0.1217
    145  CA        11.7140   24.4940   32.8910 C.3   252  SER252      0.1889
    146  C         11.8830   24.8190   31.4210 C.2   252  SER252      0.2288
    147  O         10.9290   24.8240   30.6490 O.2   252  SER252     -0.2866
    148  CB        11.8480   25.7810   33.6950 C.3   252  SER252      0.2089
    149  OG        11.6760   25.5420   35.0700 O.3   252  SER252     -0.2183
@<TRIPOS>BOND
     1    61    60    2
     2    60    59    1
     3    66    67    1
     4   131   129   ar
     5   131   132   ar
     6    88    87    1
     7   129   128   ar
     8    69    68    2
     9   134   132   ar
    10   134   136   ar
    11    85    87   ar
    12    85    83   ar
    13    59    58    1
    14    59    62    1
    15   132   130   ar
    16    67    68    1
    17    67    70    1
    18    30    31    1
    19    87    86   ar
    20    83    82   ar
    21    57    56    1
    22     8     9    1
    23    49    48    2
    24   136   135   ar
    25   128   130   ar
    26   128   127    1
    27    55    56   ar
    28    55    53   ar
    29   130   133   ar
    30     9    10    1
    31     9    12    1
    32    86    84   ar
    33    56    54   ar
    34    62    63    1
    35    32    31    1
    36    32    33    2
    37    31    34    1
    38    70    71    1
    39    77    78    1
    40    82    84   ar
    41    82    81    1
    42    48    47    1
    43    10    11    2
    44    73    71   ar
    45    73    75   ar
    46    71    72   ar
    47    53    51   ar
    48    13    12    1
    49    13    15    1
    50    54    52   ar
    51   127   124    1
    52    65    63    1
    53    81    78    1
    54   135   133   ar
    55    75    76   ar
    56   126   125    2
    57    63    64    1
    58    12    14    1
    59   124   125    1
    60   124   123    1
    61     1     2    1
    62     4     3    2
    63     3     2    1
    64    78    79    1
    65    72    74   ar
    66    51    52   ar
    67    51    50    1
    68    80    79    2
    69   125   137   am
    70    47    50    1
    71    47    46    1
    72    76    74   ar
    73     2     5    1
    74    35    36    1
    75    42    44   ar
    76    42    40   ar
    77   137   138    1
    78    37    36    1
    79    37    38    2
    80    44    45   ar
    81    39    36    1
    82    39    40    1
    83   140   139    2
    84     5     6    1
    85     5     7    1
    86    40    41   ar
    87   138   139    1
    88   138   141    1
    89   147   146    2
    90   106   109    1
    91   106   105    1
    92   106   107    1
    93   109   110    1
    94    45    43   ar
    95   108   107    2
    96    41    43   ar
    97   146   145    1
    98   107   115   am
    99   143   141    1
   100   141   142    1
   101   110   112   ar
   102   110   111   ar
   103   117   118    2
   104   117   116    1
   105   115   116    1
   106   145   144    1
   107   145   148    1
   108   112   114   ar
   109   100    99    2
   110    99    98    1
   111   116   119    1
   112   111   113   ar
   113    89    90    1
   114   148   149    1
   115   114   113   ar
   116    19    18    2
   117    97    98    1
   118    97    91   am
   119    98   101    1
   120   119   120    1
   121    90    91    1
   122    90    93    1
   123    18    17    1
   124    91    92    2
   125   101   102    1
   126   121   120    1
   127   120   122    1
   128    94    93    1
   129    94    96    1
   130    93    95    1
   131    17    16    1
   132    17    20    1
   133   102   104    1
   134   102   103    1
   135    20    21    1
   136    21    22   ar
   137    21    23   ar
   138    26    23   ar
   139    26    28   ar
   140    22    24   ar
   141    23    25   ar
   142    28    29   ar
   143    24    25   ar
   144    25    27   ar
   145    29    27   ar
