@<TRIPOS>MOLECULE
tmp/1eysB10.pdb
 97 97 0 0 0
SMALL
GASTEIGER

@<TRIPOS>ATOM
      1  N          8.5290   34.8260   11.1620 N.3    83  LEU83      -0.1231
      2  CA         9.8010   35.3110   11.6610 C.3    83  LEU83       0.1693
      3  C         10.2030   36.6690   11.1220 C.2    83  LEU83       0.2592
      4  O         11.3790   37.0000   11.1320 O.2    83  LEU83      -0.2718
      5  CB        10.8830   34.3100   11.2940 C.3    83  LEU83       0.0284
      6  CG        10.6080   32.9150   11.8230 C.3    83  LEU83       0.0019
      7  CD1       11.5810   31.9160   11.2410 C.3    83  LEU83       0.0001
      8  CD2       10.7000   32.9550   13.3240 C.3    83  LEU83       0.0001
      9  N          9.2440   37.4650   10.6680 N.am   84  ARG84      -0.1966
     10  CA         9.5680   38.7620   10.1060 C.3    84  ARG84       0.1729
     11  C          9.4740   39.8570   11.1290 C.2    84  ARG84       0.2616
     12  O          8.9530   39.6520   12.2190 O.2    84  ARG84      -0.2715
     13  CB         8.6100   39.0930    8.9730 C.3    84  ARG84       0.0348
     14  CG         8.4930   38.0150    7.9450 C.3    84  ARG84       0.0492
     15  CD         7.9310   38.5660    6.6650 C.3    84  ARG84       0.2205
     16  NE         6.4950   38.8000    6.7260 N.pl3  84  ARG84      -0.0865
     17  CZ         5.5800   37.8320    6.7940 C.cat  84  ARG84       0.5346
     18  NH1        5.9560   36.5490    6.8260 N.pl3  84  ARG84       0.1354
     19  NH2        4.2850   38.1440    6.7780 N.pl3  84  ARG84       0.1354
     20  N          9.9860   41.0260   10.7700 N.am   85  MET85      -0.1977
     21  CA         9.9230   42.1820   11.6450 C.3    85  MET85       0.1605
     22  C          8.5360   42.7120   11.4190 C.2    85  MET85       0.2287
     23  O          8.0980   42.8160   10.2810 O.2    85  MET85      -0.2864
     24  CB        10.9420   43.2340   11.2150 C.3    85  MET85       0.0413
     25  CG        10.7730   44.5980   11.8590 C.3    85  MET85       0.0598
     26  SD        11.1420   44.6670   13.6320 S.3    85  MET85      -0.1393
     27  CE        12.4460   43.3840   13.7620 C.3    85  MET85       0.0692
     28  N          7.6690   45.1160   20.6680 N.3    94  TRP94      -0.1227
     29  CA         8.0270   43.9100   21.4030 C.3    94  TRP94       0.1737
     30  C          9.2630   43.2670   20.8390 C.2    94  TRP94       0.2595
     31  O         10.0590   42.7040   21.5730 O.2    94  TRP94      -0.2718
     32  CB         6.8650   42.9130   21.3820 C.3    94  TRP94       0.0564
     33  CG         7.1330   41.6190   22.1120 C.ar   94  TRP94       0.0003
     34  CD1        6.8050   41.3240   23.3980 C.ar   94  TRP94       0.0946
     35  CD2        7.7880   40.4590   21.5880 C.ar   94  TRP94       0.0152
     36  NE1        7.2150   40.0610   23.7070 N.ar   94  TRP94      -0.2442
     37  CE2        7.8190   39.5080   22.6160 C.ar   94  TRP94       0.0810
     38  CE3        8.3420   40.1360   20.3490 C.ar   94  TRP94       0.0012
     39  CZ2        8.3900   38.2530   22.4420 C.ar   94  TRP94       0.0191
     40  CZ3        8.9060   38.8910   20.1790 C.ar   94  TRP94       0.0001
     41  CH2        8.9260   37.9630   21.2200 C.ar   94  TRP94       0.0015
     42  N          9.4080   43.3140   19.5270 N.am   95  GLN95      -0.1979
     43  CA        10.5660   42.7180   18.8990 C.3    95  GLN95       0.1601
     44  C         11.8450   43.4260   19.2970 C.2    95  GLN95       0.2287
     45  O         12.8170   42.7810   19.6530 O.2    95  GLN95      -0.2864
     46  CB        10.3860   42.6730   17.3860 C.3    95  GLN95       0.0394
     47  CG         9.6470   41.4210   16.9530 C.3    95  GLN95       0.0908
     48  CD         9.1830   41.4660   15.5210 C.2    95  GLN95       0.2608
     49  OE1        9.1810   40.4500   14.8210 O.2    95  GLN95      -0.2717
     50  NE2        8.7400   42.6330   15.0840 N.am   95  GLN95      -0.0878
     51  N         12.7650   43.0530   23.1210 N.3    98  THR98      -0.1203
     52  CA        13.3210   41.7430   23.3980 C.3    98  THR98       0.1994
     53  C         14.8090   41.7340   23.1540 C.2    98  THR98       0.2617
     54  O         15.5610   41.2430   23.9810 O.2    98  THR98      -0.2717
     55  CB        12.6570   40.6760   22.5390 C.3    98  THR98       0.1784
     56  OG1       11.3090   40.5000   22.9780 O.3    98  THR98      -0.2211
     57  CG2       13.3870   39.3590   22.6630 C.3    98  THR98       0.0376
     58  N         15.2380   42.2740   22.0190 N.am   99  ILE99      -0.1979
     59  CA        16.6590   42.3340   21.6940 C.3    99  ILE99       0.1595
     60  C         17.3810   43.0910   22.8000 C.2    99  ILE99       0.2287
     61  O         18.4610   42.6990   23.2300 O.2    99  ILE99      -0.2864
     62  CB        16.9020   43.0620   20.3800 C.3    99  ILE99       0.0276
     63  CG1       16.2470   42.3060   19.2280 C.3    99  ILE99       0.0022
     64  CG2       18.3810   43.1610   20.1220 C.3    99  ILE99       0.0022
     65  CD1       16.1830   43.1110   17.9450 C.3    99  ILE99       0.0001
     66  N         11.5080   33.2360   24.5820 N.3   140  VAL140     -0.1231
     67  CA        11.3680   34.3490   23.6700 C.3   140  VAL140      0.1692
     68  C         12.0570   34.2340   22.3110 C.2   140  VAL140      0.2592
     69  O         11.6530   34.8850   21.3450 O.2   140  VAL140     -0.2718
     70  CB        11.8240   35.5990   24.4210 C.3   140  VAL140      0.0266
     71  CG1       12.9620   36.2900   23.7220 C.3   140  VAL140      0.0020
     72  CG2       10.6600   36.5030   24.6800 C.3   140  VAL140      0.0020
     73  N         13.0400   33.3480   22.2180 N.am  141  PHE141     -0.1976
     74  CA        13.8010   33.1930   20.9910 C.3   141  PHE141      0.1639
     75  C         13.7970   31.8070   20.3560 C.2   141  PHE141      0.2290
     76  O         13.3770   31.6650   19.2180 O.2   141  PHE141     -0.2864
     77  CB        15.2340   33.6660   21.2580 C.3   141  PHE141      0.0560
     78  CG        16.1570   33.4930   20.1090 C.ar  141  PHE141     -0.0200
     79  CD1       15.9730   34.2170   18.9400 C.ar  141  PHE141     -0.0042
     80  CD2       17.2360   32.6170   20.1990 C.ar  141  PHE141     -0.0042
     81  CE1       16.8530   34.0720   17.8750 C.ar  141  PHE141     -0.0003
     82  CE2       18.1230   32.4640   19.1380 C.ar  141  PHE141     -0.0003
     83  CZ        17.9300   33.1940   17.9750 C.ar  141  PHE141     -0.0000
     84  N          7.4730   34.7690   15.8030 N.3   150  TRP150     -0.1241
     85  CA         7.8220   35.5180   17.0090 C.3   150  TRP150      0.1605
     86  C          6.6170   35.7330   17.9060 C.2   150  TRP150      0.2264
     87  O          6.7580   35.9680   19.1060 O.2   150  TRP150     -0.2867
     88  CB         8.4440   36.8740   16.6530 C.3   150  TRP150      0.0550
     89  CG         9.7010   36.7980   15.8340 C.ar  150  TRP150      0.0003
     90  CD1        9.9080   37.3700   14.6270 C.ar  150  TRP150      0.0946
     91  CD2       10.9030   36.0750   16.1470 C.ar  150  TRP150      0.0152
     92  NE1       11.1520   37.0420   14.1490 N.ar  150  TRP150     -0.2442
     93  CE2       11.7820   36.2490   15.0620 C.ar  150  TRP150      0.0810
     94  CE3       11.3160   35.2990   17.2350 C.ar  150  TRP150      0.0012
     95  CZ2       13.0530   35.6700   15.0310 C.ar  150  TRP150      0.0191
     96  CZ3       12.5810   34.7240   17.2040 C.ar  150  TRP150      0.0001
     97  CH2       13.4330   34.9120   16.1080 C.ar  150  TRP150      0.0015
@<TRIPOS>BOND
     1    15    16    1
     2    15    14    1
     3    16    17    2
     4    19    17    1
     5    17    18    1
     6    14    13    1
     7    13    10    1
     8    10     9    1
     9    10    11    1
    10    23    22    2
    11     9     3   am
    12    20    11   am
    13    20    21    1
    14     3     4    2
    15     3     2    1
    16    11    12    2
    17     1     2    1
    18    24    21    1
    19    24    25    1
    20     7     6    1
    21     5     2    1
    22     5     6    1
    23    22    21    1
    24     6     8    1
    25    25    26    1
    26    26    27    1
    27    92    90   ar
    28    92    93   ar
    29    90    89   ar
    30    49    48    2
    31    95    93   ar
    32    95    97   ar
    33    93    91   ar
    34    50    48   am
    35    48    47    1
    36    84    85    1
    37    89    91   ar
    38    89    88    1
    39    97    96   ar
    40    91    94   ar
    41    88    85    1
    42    47    46    1
    43    85    86    1
    44    96    94   ar
    45    46    43    1
    46    81    83   ar
    47    81    79   ar
    48    86    87    2
    49    65    63    1
    50    83    82   ar
    51    43    44    1
    52    43    42    1
    53    79    78   ar
    54    82    80   ar
    55    76    75    2
    56    63    62    1
    57    44    45    2
    58    42    30   am
    59    78    80   ar
    60    78    77    1
    61    64    62    1
    62    40    38   ar
    63    40    41   ar
    64    38    35   ar
    65    75    74    1
    66    62    59    1
    67    28    29    1
    68    30    29    1
    69    30    31    2
    70    74    77    1
    71    74    73    1
    72    41    39   ar
    73    69    68    2
    74    32    29    1
    75    32    33    1
    76    35    33   ar
    77    35    37   ar
    78    59    58    1
    79    59    60    1
    80    58    53   am
    81    33    34   ar
    82    73    68   am
    83    68    67    1
    84    39    37   ar
    85    55    57    1
    86    55    56    1
    87    55    52    1
    88    37    36   ar
    89    60    61    2
    90    51    52    1
    91    53    52    1
    92    53    54    2
    93    34    36   ar
    94    67    70    1
    95    67    66    1
    96    71    70    1
    97    70    72    1
