@<TRIPOS>MOLECULE
tmp/1eysB03.pdb
 83 80 0 0 0
SMALL
GASTEIGER

@<TRIPOS>ATOM
      1  N         -0.1930   20.0160   33.7300 N.3   176  HIS176     -0.1241
      2  CA         0.4190   19.2830   34.8260 C.3   176  HIS176      0.1621
      3  C          0.9720   17.9350   34.4130 C.2   176  HIS176      0.2264
      4  O          1.8320   17.3950   35.0830 O.2   176  HIS176     -0.2867
      5  CB        -0.5840   19.0340   35.9270 C.3   176  HIS176      0.0745
      6  CG        -0.8120   20.2210   36.8050 C.ar  176  HIS176      0.0817
      7  ND1       -2.0650   20.5740   37.2390 N.ar  176  HIS176     -0.2268
      8  CD2        0.0560   21.0880   37.3400 C.ar  176  HIS176      0.1154
      9  CE1       -1.9530   21.6300   38.0280 C.ar  176  HIS176      0.1986
     10  NE2       -0.6900   21.9670   38.1100 N.ar  176  HIS176     -0.2212
     11  N          7.8910   19.0330   33.0230 N.3   181  HIS181     -0.1226
     12  CA         7.2630   20.0000   33.9280 C.3   181  HIS181      0.1752
     13  C          7.2400   19.4270   35.3260 C.2   181  HIS181      0.2595
     14  O          7.5780   20.1140   36.2860 O.2   181  HIS181     -0.2718
     15  CB         5.8310   20.2790   33.4540 C.3   181  HIS181      0.0759
     16  CG         5.1550   21.4410   34.1420 C.ar  181  HIS181      0.0818
     17  ND1        4.2520   21.2680   35.1620 N.ar  181  HIS181     -0.2268
     18  CD2        5.2130   22.7610   33.8910 C.ar  181  HIS181      0.1154
     19  CE1        3.7720   22.4490   35.5140 C.ar  181  HIS181      0.1986
     20  NE2        4.3300   23.3700   34.7690 N.ar  181  HIS181     -0.2212
     21  N          6.8560   18.1620   35.4510 N.am  182  MET182     -0.1979
     22  CA         6.8260   17.5440   36.7590 C.3   182  MET182      0.1605
     23  C          8.2360   17.5630   37.3450 C.2   182  MET182      0.2287
     24  O          8.4120   17.8200   38.5240 O.2   182  MET182     -0.2864
     25  CB         6.3260   16.1100   36.6580 C.3   182  MET182      0.0413
     26  CG         5.1030   15.9300   35.7850 C.3   182  MET182      0.0598
     27  SD         4.6050   14.2070   35.7860 S.3   182  MET182     -0.1393
     28  CE         3.0530   14.3050   35.0910 C.3   182  MET182      0.0692
     29  N          9.3400   21.2080   38.5730 N.3   185  ILE185     -0.1231
     30  CA         8.6050   21.5620   39.7800 C.3   185  ILE185      0.1692
     31  C          9.2190   20.8920   40.9790 C.2   185  ILE185      0.2592
     32  O          9.3030   21.4690   42.0530 O.2   185  ILE185     -0.2718
     33  CB         7.1280   21.1240   39.6800 C.3   185  ILE185      0.0266
     34  CG1        6.4320   21.8980   38.5740 C.3   185  ILE185      0.0019
     35  CG2        6.4160   21.3380   40.9900 C.3   185  ILE185      0.0020
     36  CD1        4.9710   21.6090   38.4660 C.3   185  ILE185      0.0001
     37  N          9.6140   19.6460   40.7950 N.am  186  SER186     -0.1952
     38  CA        10.2210   18.8780   41.8560 C.3   186  SER186      0.1924
     39  C         11.5100   19.5550   42.2400 C.2   186  SER186      0.2314
     40  O         11.8590   19.6270   43.4120 O.2   186  SER186     -0.2863
     41  CB        10.5030   17.4830   41.3500 C.3   186  SER186      0.2116
     42  OG         9.3970   17.0420   40.5860 O.3   186  SER186     -0.2180
     43  N         10.7220   22.7480   44.0370 N.3   189  PHE189     -0.1227
     44  CA        10.2730   22.4150   45.3770 C.3   189  PHE189      0.1736
     45  C         11.4160   21.9460   46.2450 C.2   189  PHE189      0.2596
     46  O         11.5900   22.4160   47.3650 O.2   189  PHE189     -0.2718
     47  CB         9.1950   21.3280   45.3310 C.3   189  PHE189      0.0547
     48  CG         7.8160   21.8270   44.9530 C.ar  189  PHE189     -0.0202
     49  CD1        7.5050   23.1780   44.9830 C.ar  189  PHE189     -0.0042
     50  CD2        6.8240   20.9270   44.5730 C.ar  189  PHE189     -0.0042
     51  CE1        6.2310   23.6180   44.6410 C.ar  189  PHE189     -0.0003
     52  CE2        5.5520   21.3590   44.2300 C.ar  189  PHE189     -0.0003
     53  CZ         5.2540   22.7020   44.2630 C.ar  189  PHE189     -0.0000
     54  N         12.1850   20.9940   45.7410 N.am  190  THR190     -0.1953
     55  CA        13.3010   20.4570   46.4940 C.3   190  THR190      0.1897
     56  C         14.2890   21.5510   46.8550 C.2   190  THR190      0.2313
     57  O         14.7850   21.6050   47.9840 O.2   190  THR190     -0.2863
     58  CB        14.0200   19.3770   45.7100 C.3   190  THR190      0.1794
     59  OG1       13.0570   18.4910   45.1420 O.3   190  THR190     -0.2208
     60  CG2       14.8820   18.5770   46.6180 C.3   190  THR190      0.0378
     61  N         13.2880   23.5760   49.6700 N.3   193  LEU193     -0.1245
     62  CA        13.4100   22.8110   50.9030 C.3   193  LEU193      0.1561
     63  C         14.8550   22.8810   51.3760 C.2   193  LEU193      0.2260
     64  O         15.1170   23.1870   52.5360 O.2   193  LEU193     -0.2867
     65  CB        13.0140   21.3580   50.6510 C.3   193  LEU193      0.0270
     66  CG        12.7740   20.4100   51.8300 C.3   193  LEU193      0.0019
     67  CD1       12.4290   19.0580   51.2940 C.3   193  LEU193      0.0001
     68  CD2       13.9620   20.2850   52.7260 C.3   193  LEU193      0.0001
     69  N         19.1960   13.4450   62.4290 N.3   227  ILE227     -0.1231
     70  CA        17.8710   13.4850   61.8380 C.3   227  ILE227      0.1692
     71  C         17.6250   12.4940   60.7060 C.2   227  ILE227      0.2591
     72  O         16.6600   11.7280   60.7500 O.2   227  ILE227     -0.2718
     73  CB        17.5510   14.8800   61.3430 C.3   227  ILE227      0.0266
     74  CG1       17.8480   15.8850   62.4370 C.3   227  ILE227      0.0019
     75  CG2       16.0740   14.9940   61.0450 C.3   227  ILE227      0.0020
     76  CD1       17.0140   15.6680   63.6360 C.3   227  ILE227      0.0001
     77  N         18.4900   12.4990   59.6960 N.am  228  VAL228     -0.1980
     78  CA        18.3210   11.6070   58.5560 C.3   228  VAL228      0.1595
     79  C         19.4940   10.6870   58.2480 C.2   228  VAL228      0.2287
     80  O         19.6120   10.1910   57.1300 O.2   228  VAL228     -0.2864
     81  CB        17.9760   12.3980   57.2860 C.3   228  VAL228      0.0276
     82  CG1       16.5840   12.9900   57.4050 C.3   228  VAL228      0.0022
     83  CG2       18.9880   13.5140   57.0700 C.3   228  VAL228      0.0022
@<TRIPOS>BOND
     1    11    12    1
     2    15    12    1
     3    15    16    1
     4     1     2    1
     5    18    16   ar
     6    18    20   ar
     7    12    13    1
     8    16    17   ar
     9     3     2    1
    10     3     4    2
    11    20    19   ar
    12     2     5    1
    13    28    27    1
    14    17    19   ar
    15    13    21   am
    16    13    14    2
    17    21    22    1
    18    26    27    1
    19    26    25    1
    20     5     6    1
    21    25    22    1
    22    22    23    1
    23     6     7   ar
    24     6     8   ar
    25     7     9   ar
    26     8    10   ar
    27    23    24    2
    28     9    10   ar
    29    36    34    1
    30    29    30    1
    31    34    33    1
    32    33    30    1
    33    33    35    1
    34    30    31    1
    35    42    41    1
    36    37    31   am
    37    37    38    1
    38    31    32    2
    39    41    38    1
    40    38    39    1
    41    39    40    2
    42    43    44    1
    43    52    53   ar
    44    52    50   ar
    45    53    51   ar
    46    50    48   ar
    47    51    49   ar
    48    48    49   ar
    49    48    47    1
    50    59    58    1
    51    47    44    1
    52    44    45    1
    53    58    55    1
    54    58    60    1
    55    54    45   am
    56    54    55    1
    57    45    46    2
    58    55    56    1
    59    56    57    2
    60    61    62    1
    61    65    62    1
    62    65    66    1
    63    62    63    1
    64    67    66    1
    65    63    64    2
    66    66    68    1
    67    83    81    1
    68    80    79    2
    69    81    82    1
    70    81    78    1
    71    79    78    1
    72    78    77    1
    73    77    71   am
    74    71    72    2
    75    71    70    1
    76    75    73    1
    77    73    70    1
    78    73    74    1
    79    70    69    1
    80    74    76    1
