@<TRIPOS>MOLECULE
tmp/1eysB04.pdb
 227 225 0 0 0
SMALL
GASTEIGER

@<TRIPOS>ATOM
      1  N         20.6280   41.7200   29.5650 N.3   105  PHE105     -0.1241
      2  CA        20.9070   40.5950   30.4420 C.3   105  PHE105      0.1605
      3  C         22.2740   39.9970   30.1940 C.2   105  PHE105      0.2264
      4  O         22.9770   39.6390   31.1350 O.2   105  PHE105     -0.2867
      5  CB        19.8720   39.5030   30.2460 C.3   105  PHE105      0.0534
      6  CG        18.4750   39.9350   30.5340 C.ar  105  PHE105     -0.0203
      7  CD1       18.2180   40.9810   31.4000 C.ar  105  PHE105     -0.0042
      8  CD2       17.4060   39.2810   29.9450 C.ar  105  PHE105     -0.0042
      9  CE1       16.9200   41.3680   31.6740 C.ar  105  PHE105     -0.0003
     10  CE2       16.1120   39.6610   30.2140 C.ar  105  PHE105     -0.0003
     11  CZ        15.8650   40.7060   31.0790 C.ar  105  PHE105     -0.0000
     12  N         23.9100   32.3530   36.3830 N.3   129  PHE129     -0.1241
     13  CA        22.9850   33.3520   35.8740 C.3   129  PHE129      0.1605
     14  C         22.5960   33.0580   34.4360 C.2   129  PHE129      0.2264
     15  O         21.4240   33.0820   34.0980 O.2   129  PHE129     -0.2867
     16  CB        23.5720   34.7650   36.0180 C.3   129  PHE129      0.0534
     17  CG        22.6880   35.8660   35.4750 C.ar  129  PHE129     -0.0203
     18  CD1       21.3020   35.7670   35.5180 C.ar  129  PHE129     -0.0042
     19  CD2       23.2480   36.9860   34.8940 C.ar  129  PHE129     -0.0042
     20  CE1       20.4880   36.7650   34.9830 C.ar  129  PHE129     -0.0003
     21  CE2       22.4470   37.9870   34.3580 C.ar  129  PHE129     -0.0003
     22  CZ        21.0600   37.8730   34.4030 C.ar  129  PHE129     -0.0000
     23  N         19.3020   31.4520   33.6850 N.3   132  ALA132     -0.1231
     24  CA        18.0560   32.2020   33.7000 C.3   132  ALA132      0.1694
     25  C         17.9080   32.8820   32.3560 C.2   132  ALA132      0.2591
     26  O         16.8150   33.0060   31.8360 O.2   132  ALA132     -0.2718
     27  CB        18.0720   33.2150   34.7970 C.3   132  ALA132      0.0304
     28  N         19.0220   33.2980   31.7730 N.am  133  ILE133     -0.1980
     29  CA        19.0130   33.9560   30.4680 C.3   133  ILE133      0.1595
     30  C         18.6850   32.9540   29.3770 C.2   133  ILE133      0.2287
     31  O         18.1370   33.3110   28.3450 O.2   133  ILE133     -0.2864
     32  CB        20.3860   34.6070   30.1660 C.3   133  ILE133      0.0276
     33  CG1       20.6940   35.6730   31.2080 C.3   133  ILE133      0.0022
     34  CG2       20.4020   35.2440   28.7800 C.3   133  ILE133      0.0022
     35  CD1       22.0120   36.3420   30.9970 C.3   133  ILE133      0.0001
     36  N         16.7380   30.2730   29.8070 N.3   135  ALA135     -0.1231
     37  CA        15.3030   30.0110   29.9710 C.3   135  ALA135      0.1694
     38  C         14.5390   31.1400   29.3260 C.2   135  ALA135      0.2592
     39  O         13.5990   30.9170   28.5750 O.2   135  ALA135     -0.2718
     40  CB        14.9450   29.9060   31.4310 C.3   135  ALA135      0.0304
     41  N         14.9710   32.3630   29.5820 N.am  136  TYR136     -0.1976
     42  CA        14.3050   33.4930   28.9750 C.3   136  TYR136      0.1639
     43  C         14.4390   33.4060   27.4740 C.2   136  TYR136      0.2290
     44  O         13.4970   33.6710   26.7570 O.2   136  TYR136     -0.2864
     45  CB        14.9110   34.8020   29.4460 C.3   136  TYR136      0.0560
     46  CG        14.4140   35.9860   28.6620 C.ar  136  TYR136     -0.0198
     47  CD1       13.0800   36.3760   28.7190 C.ar  136  TYR136     -0.0009
     48  CD2       15.2690   36.6990   27.8330 C.ar  136  TYR136     -0.0009
     49  CE1       12.6140   37.4500   27.9660 C.ar  136  TYR136      0.0417
     50  CE2       14.8120   37.7760   27.0740 C.ar  136  TYR136      0.0417
     51  CZ        13.4860   38.1400   27.1470 C.ar  136  TYR136      0.1957
     52  OH        13.0350   39.1950   26.4000 O.3   136  TYR136     -0.2866
     53  N         12.1590   30.8200   25.8440 N.3   139  LEU139     -0.1245
     54  CA        10.7840   31.3080   25.8210 C.3   139  LEU139      0.1561
     55  C         10.5360   32.3530   24.7630 C.2   139  LEU139      0.2260
     56  O          9.5040   32.3480   24.1050 O.2   139  LEU139     -0.2867
     57  CB        10.4210   31.9410   27.1620 C.3   139  LEU139      0.0270
     58  CG        10.0150   31.0760   28.3340 C.3   139  LEU139      0.0019
     59  CD1        9.9770   31.9170   29.5750 C.3   139  LEU139      0.0001
     60  CD2        8.6620   30.4960   28.0510 C.3   139  LEU139      0.0001
     61  N          5.9950   35.2210   24.8740 N.3   154  PHE154     -0.1241
     62  CA         5.0720   35.7340   25.8660 C.3   154  PHE154      0.1605
     63  C          5.1250   37.2520   25.8760 C.2   154  PHE154      0.2264
     64  O          6.1760   37.8310   25.6180 O.2   154  PHE154     -0.2867
     65  CB         5.3960   35.1650   27.2460 C.3   154  PHE154      0.0534
     66  CG         6.6810   35.6520   27.8280 C.ar  154  PHE154     -0.0203
     67  CD1        6.7090   36.7810   28.6270 C.ar  154  PHE154     -0.0042
     68  CD2        7.8540   34.9520   27.6280 C.ar  154  PHE154     -0.0042
     69  CE1        7.8820   37.2040   29.2160 C.ar  154  PHE154     -0.0003
     70  CE2        9.0330   35.3720   28.2180 C.ar  154  PHE154     -0.0003
     71  CZ         9.0450   36.4970   29.0110 C.ar  154  PHE154     -0.0000
     72  N         -0.8870   34.6220   29.4490 N.3   164  TRP164     -0.1227
     73  CA        -0.2250   33.8580   28.4000 C.3   164  TRP164      0.1737
     74  C          0.0660   32.4550   28.8950 C.2   164  TRP164      0.2595
     75  O         -0.2690   31.4740   28.2500 O.2   164  TRP164     -0.2718
     76  CB         1.0790   34.5540   28.0020 C.3   164  TRP164      0.0564
     77  CG         1.8600   33.8620   26.9340 C.ar  164  TRP164      0.0003
     78  CD1        1.7050   34.0020   25.5950 C.ar  164  TRP164      0.0946
     79  CD2        2.9390   32.9480   27.1220 C.ar  164  TRP164      0.0152
     80  NE1        2.6250   33.2370   24.9300 N.ar  164  TRP164     -0.2442
     81  CE2        3.3970   32.5790   25.8480 C.ar  164  TRP164      0.0810
     82  CE3        3.5670   32.4040   28.2460 C.ar  164  TRP164      0.0012
     83  CZ2        4.4480   31.6900   25.6630 C.ar  164  TRP164      0.0191
     84  CZ3        4.6070   31.5200   28.0650 C.ar  164  TRP164      0.0001
     85  CH2        5.0410   31.1730   26.7800 C.ar  164  TRP164      0.0015
     86  N          0.7220   32.3700   30.0330 N.am  165  VAL165     -0.1966
     87  CA         1.0580   31.0980   30.6040 C.3   165  VAL165      0.1727
     88  C         -0.1820   30.2390   30.6990 C.2   165  VAL165      0.2616
     89  O         -0.1870   29.1000   30.2610 O.2   165  VAL165     -0.2715
     90  CB         1.6530   31.2820   31.9770 C.3   165  VAL165      0.0290
     91  CG1        1.9460   29.9630   32.5820 C.3   165  VAL165      0.0023
     92  CG2        2.9230   32.0950   31.8870 C.3   165  VAL165      0.0023
     93  N         -1.2630   30.8210   31.1940 N.am  166  SER166     -0.1950
     94  CA        -2.5160   30.1020   31.3520 C.3   166  SER166      0.1924
     95  C         -3.0230   29.5470   30.0360 C.2   166  SER166      0.2314
     96  O         -3.2300   28.3610   29.9090 O.2   166  SER166     -0.2863
     97  CB        -3.5700   31.0140   31.9670 C.3   166  SER166      0.2116
     98  OG        -4.6970   30.2780   32.3830 O.3   166  SER166     -0.2180
     99  N         -1.4280   29.0550   27.2160 N.3   168  VAL168     -0.1231
    100  CA        -0.4970   28.1640   26.5110 C.3   168  VAL168      0.1692
    101  C         -0.5170   26.7730   27.1270 C.2   168  VAL168      0.2593
    102  O         -0.3840   25.7740   26.4270 O.2   168  VAL168     -0.2718
    103  CB         0.9440   28.6990   26.5230 C.3   168  VAL168      0.0266
    104  CG1        1.9300   27.6340   26.0050 C.3   168  VAL168      0.0020
    105  CG2        1.0300   29.9330   25.6710 C.3   168  VAL168      0.0020
    106  N         -0.6530   26.7130   28.4450 N.am  169  GLY169     -0.1942
    107  CA        -0.7120   25.4320   29.1150 C.3   169  GLY169      0.2014
    108  C         -1.9910   24.6770   28.7950 C.2   169  GLY169      0.2638
    109  O         -1.9510   23.5060   28.4300 O.2   169  GLY169     -0.2714
    110  N         -3.1300   25.3450   28.9320 N.am  170  TYR170     -0.1973
    111  CA        -4.4110   24.7160   28.6620 C.3   170  TYR170      0.1639
    112  C         -4.6020   24.3400   27.2050 C.2   170  TYR170      0.2290
    113  O         -5.5880   23.7150   26.8440 O.2   170  TYR170     -0.2864
    114  CB        -5.5530   25.5930   29.1400 C.3   170  TYR170      0.0560
    115  CG        -5.8730   25.4540   30.6020 C.ar  170  TYR170     -0.0198
    116  CD1       -6.2740   24.2420   31.1350 C.ar  170  TYR170     -0.0009
    117  CD2       -5.8110   26.5420   31.4460 C.ar  170  TYR170     -0.0009
    118  CE1       -6.6120   24.1260   32.4800 C.ar  170  TYR170      0.0417
    119  CE2       -6.1440   26.4370   32.7870 C.ar  170  TYR170      0.0417
    120  CZ        -6.5400   25.2310   33.2980 C.ar  170  TYR170      0.1957
    121  OH        -6.8570   25.1430   34.6310 O.3   170  TYR170     -0.2866
    122  N         -4.2550   19.7010   30.0210 N.3   174  HIS174     -0.1226
    123  CA        -3.7960   19.4940   31.3950 C.3   174  HIS174      0.1752
    124  C         -2.2710   19.5540   31.4000 C.2   174  HIS174      0.2596
    125  O         -1.6130   18.5130   31.3670 O.2   174  HIS174     -0.2718
    126  CB        -4.2250   18.0940   31.8400 C.3   174  HIS174      0.0759
    127  CG        -4.5010   17.9730   33.3090 C.ar  174  HIS174      0.0818
    128  ND1       -5.5080   17.1650   33.7920 N.ar  174  HIS174     -0.2268
    129  CD2       -3.8980   18.5180   34.3740 C.ar  174  HIS174      0.1154
    130  CE1       -5.5010   17.2220   35.1130 C.ar  174  HIS174      0.1986
    131  NE2       -4.5400   18.0300   35.4960 N.ar  174  HIS174     -0.2212
    132  N         -1.7040   20.7550   31.4830 N.am  175  PHE175     -0.1962
    133  CA        -0.2550   20.8970   31.4630 C.3   175  PHE175      0.1771
    134  C          0.4420   20.1440   32.5750 C.2   175  PHE175      0.2619
    135  O          1.5480   19.6670   32.3840 O.2   175  PHE175     -0.2715
    136  CB         0.1550   22.3590   31.4910 C.3   175  PHE175      0.0574
    137  CG         1.3900   22.6620   30.6840 C.ar  175  PHE175     -0.0200
    138  CD1        1.2930   22.9130   29.3280 C.ar  175  PHE175     -0.0042
    139  CD2        2.6350   22.7510   31.2870 C.ar  175  PHE175     -0.0042
    140  CE1        2.4170   23.2560   28.5900 C.ar  175  PHE175     -0.0003
    141  CE2        3.7560   23.0910   30.5560 C.ar  175  PHE175     -0.0003
    142  CZ         3.6480   23.3440   29.2100 C.ar  175  PHE175     -0.0000
    143  N         -0.1930   20.0160   33.7300 N.am  176  HIS176     -0.1973
    144  CA         0.4190   19.2830   34.8260 C.3   176  HIS176      0.1656
    145  C          0.9720   17.9350   34.4130 C.2   176  HIS176      0.2291
    146  O          1.8320   17.3950   35.0830 O.2   176  HIS176     -0.2864
    147  CB        -0.5840   19.0340   35.9270 C.3   176  HIS176      0.0771
    148  CG        -0.8120   20.2210   36.8050 C.ar  176  HIS176      0.0820
    149  ND1       -2.0650   20.5740   37.2390 N.ar  176  HIS176     -0.2267
    150  CD2        0.0560   21.0880   37.3400 C.ar  176  HIS176      0.1154
    151  CE1       -1.9530   21.6300   38.0280 C.ar  176  HIS176      0.1986
    152  NE2       -0.6900   21.9670   38.1100 N.ar  176  HIS176     -0.2212
    153  N          7.8910   19.0330   33.0230 N.3   181  HIS181     -0.1241
    154  CA         7.2630   20.0000   33.9280 C.3   181  HIS181      0.1621
    155  C          7.2400   19.4270   35.3260 C.2   181  HIS181      0.2264
    156  O          7.5780   20.1140   36.2860 O.2   181  HIS181     -0.2867
    157  CB         5.8310   20.2790   33.4540 C.3   181  HIS181      0.0745
    158  CG         5.1550   21.4410   34.1420 C.ar  181  HIS181      0.0817
    159  ND1        4.2520   21.2680   35.1620 N.ar  181  HIS181     -0.2268
    160  CD2        5.2130   22.7610   33.8910 C.ar  181  HIS181      0.1154
    161  CE1        3.7720   22.4490   35.5140 C.ar  181  HIS181      0.1986
    162  NE2        4.3300   23.3700   34.7690 N.ar  181  HIS181     -0.2212
    163  N         10.8750   19.7240   36.7020 N.3   184  ALA184     -0.1231
    164  CA        11.2360   21.0820   37.0820 C.3   184  ALA184      0.1694
    165  C         10.6210   21.5170   38.3920 C.2   184  ALA184      0.2591
    166  O         11.2880   22.1330   39.2130 O.2   184  ALA184     -0.2718
    167  CB        10.8360   22.0340   35.9970 C.3   184  ALA184      0.0304
    168  N          9.3400   21.2080   38.5730 N.am  185  ILE185     -0.1980
    169  CA         8.6050   21.5620   39.7800 C.3   185  ILE185      0.1595
    170  C          9.2190   20.8920   40.9790 C.2   185  ILE185      0.2287
    171  O          9.3030   21.4690   42.0530 O.2   185  ILE185     -0.2864
    172  CB         7.1280   21.1240   39.6800 C.3   185  ILE185      0.0276
    173  CG1        6.4320   21.8980   38.5740 C.3   185  ILE185      0.0022
    174  CG2        6.4160   21.3380   40.9900 C.3   185  ILE185      0.0022
    175  CD1        4.9710   21.6090   38.4660 C.3   185  ILE185      0.0001
    176  N         12.2310   22.8300   41.7300 N.3   188  PHE188     -0.1227
    177  CA        11.8640   24.0750   42.3760 C.3   188  PHE188      0.1736
    178  C         11.4630   23.8210   43.8130 C.2   188  PHE188      0.2595
    179  O         11.8370   24.5670   44.7110 O.2   188  PHE188     -0.2718
    180  CB        10.7170   24.7390   41.6330 C.3   188  PHE188      0.0547
    181  CG        11.1610   25.6840   40.5680 C.ar  188  PHE188     -0.0202
    182  CD1       10.9170   25.4140   39.2350 C.ar  188  PHE188     -0.0042
    183  CD2       11.8400   26.8420   40.9020 C.ar  188  PHE188     -0.0042
    184  CE1       11.3450   26.2830   38.2460 C.ar  188  PHE188     -0.0003
    185  CE2       12.2700   27.7160   39.9230 C.ar  188  PHE188     -0.0003
    186  CZ        12.0230   27.4370   38.5920 C.ar  188  PHE188     -0.0000
    187  N         10.7220   22.7480   44.0370 N.am  189  PHE189     -0.1976
    188  CA        10.2730   22.4150   45.3770 C.3   189  PHE189      0.1639
    189  C         11.4160   21.9460   46.2450 C.2   189  PHE189      0.2290
    190  O         11.5900   22.4160   47.3650 O.2   189  PHE189     -0.2864
    191  CB         9.1950   21.3280   45.3310 C.3   189  PHE189      0.0560
    192  CG         7.8160   21.8270   44.9530 C.ar  189  PHE189     -0.0200
    193  CD1        7.5050   23.1780   44.9830 C.ar  189  PHE189     -0.0042
    194  CD2        6.8240   20.9270   44.5730 C.ar  189  PHE189     -0.0042
    195  CE1        6.2310   23.6180   44.6410 C.ar  189  PHE189     -0.0003
    196  CE2        5.5520   21.3590   44.2300 C.ar  189  PHE189     -0.0003
    197  CZ         5.2540   22.7020   44.2630 C.ar  189  PHE189     -0.0000
    198  N         15.8250   25.5890   36.4010 N.3   249  ALA249     -0.1245
    199  CA        15.7950   26.4170   35.2180 C.3   249  ALA249      0.1562
    200  C         15.9330   25.5970   33.9620 C.2   249  ALA249      0.2260
    201  O         15.3000   25.8810   32.9530 O.2   249  ALA249     -0.2867
    202  CB        16.8930   27.4360   35.2790 C.3   249  ALA249      0.0290
    203  N         12.8040   23.5780   33.1830 N.3   252  SER252     -0.1202
    204  CA        11.7140   24.4940   32.8910 C.3   252  SER252      0.2020
    205  C         11.8830   24.8190   31.4210 C.2   252  SER252      0.2618
    206  O         10.9290   24.8240   30.6490 O.2   252  SER252     -0.2717
    207  CB        11.8480   25.7810   33.6950 C.3   252  SER252      0.2103
    208  OG        11.6760   25.5420   35.0700 O.3   252  SER252     -0.2182
    209  N         13.1350   25.0240   31.0300 N.am  253  ALA253     -0.1979
    210  CA        13.4710   25.3640   29.6640 C.3   253  ALA253      0.1597
    211  C         13.0870   24.2720   28.6990 C.2   253  ALA253      0.2287
    212  O         12.6060   24.5480   27.6110 O.2   253  ALA253     -0.2864
    213  CB        14.9260   25.6450   29.5610 C.3   253  ALA253      0.0319
    214  N         10.8130   21.8390   29.3580 N.3   255  CYS255     -0.1221
    215  CA         9.3890   21.5650   29.4730 C.3   255  CYS255      0.1808
    216  C          8.5780   22.4060   28.5330 C.2   255  CYS255      0.2601
    217  O          7.6550   21.9030   27.8970 O.2   255  CYS255     -0.2717
    218  CB         8.8950   21.7150   30.9070 C.3   255  CYS255      0.0970
    219  SG         8.0210   23.2160   31.2540 S.3   255  CYS255     -0.0800
    220  N          8.9230   23.6770   28.4000 N.am  256  ILE256     -0.1979
    221  CA         8.1790   24.5000   27.4740 C.3   256  ILE256      0.1595
    222  C          8.6980   24.2470   26.0730 C.2   256  ILE256      0.2287
    223  O          7.9360   24.2840   25.1150 O.2   256  ILE256     -0.2864
    224  CB         8.3140   25.9700   27.7860 C.3   256  ILE256      0.0276
    225  CG1        7.2130   26.7570   27.0720 C.3   256  ILE256      0.0022
    226  CG2        9.6700   26.4680   27.3600 C.3   256  ILE256      0.0022
    227  CD1        5.8250   26.4640   27.5760 C.3   256  ILE256      0.0001
@<TRIPOS>BOND
     1    56    55    2
     2    55    54    1
     3    61    62    1
     4    80    78   ar
     5    80    81   ar
     6   223   222    2
     7    78    77   ar
     8    64    63    2
     9    83    81   ar
    10    83    85   ar
    11   105   103    1
    12    54    53    1
    13    54    57    1
    14    81    79   ar
    15    62    63    1
    16    62    65    1
    17   104   103    1
    18   222   221    1
    19    52    51    1
    20   102   101    2
    21   100   103    1
    22   100   101    1
    23   100    99    1
    24    44    43    2
    25    85    84   ar
    26   113   112    2
    27    77    79   ar
    28    77    76    1
    29   225   227    1
    30   225   224    1
    31    50    51   ar
    32    50    48   ar
    33    79    82   ar
    34   101   106   am
    35    51    49   ar
    36    57    58    1
    37   112   111    1
    38    65    66    1
    39   226   224    1
    40    43    42    1
    41   221   224    1
    42   221   220    1
    43   212   211    2
    44    68    66   ar
    45    68    70   ar
    46    66    67   ar
    47    48    46   ar
    48   217   216    2
    49    49    47   ar
    50    76    73    1
    51    60    58    1
    52    84    82   ar
    53    70    71   ar
    54    75    74    2
    55    58    59    1
    56    31    30    2
    57    73    74    1
    58    73    72    1
    59   220   216   am
    60   109   108    2
    61   106   107    1
    62   216   215    1
    63    39    38    2
    64   140   142   ar
    65   140   138   ar
    66    67    69   ar
    67    46    47   ar
    68    46    45    1
    69   111   110    1
    70   111   114    1
    71   211   210    1
    72    34    32    1
    73   108   110   am
    74   108   107    1
    75    74    86   am
    76    42    45    1
    77    42    41    1
    78    71    69   ar
    79   114   115    1
    80   142   141   ar
    81    38    41   am
    82    38    37    1
    83   138   137   ar
    84   214   215    1
    85    30    29    1
    86   215   218    1
    87   213   210    1
    88     1     2    1
    89   210   209    1
    90    36    37    1
    91    96    95    2
    92     8    10   ar
    93     8     6   ar
    94    37    40    1
    95   122   123    1
    96    86    87    1
    97    95    94    1
    98    32    29    1
    99    32    33    1
   100     3     2    1
   101     3     4    2
   102    10    11   ar
   103     5     2    1
   104     5     6    1
   105    89    88    2
   106    29    28    1
   107     6     7   ar
   108   141   139   ar
   109   115   116   ar
   110   115   117   ar
   111    87    88    1
   112    87    90    1
   113   206   205    2
   114   137   139   ar
   115   137   136    1
   116    88    93   am
   117   218   219    1
   118    35    33    1
   119   209   205   am
   120    11     9   ar
   121   116   118   ar
   122    93    94    1
   123    94    97    1
   124   125   124    2
   125   123   124    1
   126   123   126    1
   127   124   132   am
   128     7     9   ar
   129   205   204    1
   130   117   119   ar
   131   133   132    1
   132   133   136    1
   133   133   134    1
   134    28    25   am
   135    26    25    2
   136   126   127    1
   137    92    90    1
   138    97    98    1
   139    90    91    1
   140    25    24    1
   141   135   134    2
   142   118   120   ar
   143   134   143   am
   144   119   120   ar
   145   204   203    1
   146   204   207    1
   147   201   200    2
   148   153   154    1
   149   120   121    1
   150   127   128   ar
   151   127   129   ar
   152   157   154    1
   153   157   158    1
   154    23    24    1
   155   207   208    1
   156    24    27    1
   157   143   144    1
   158   128   130   ar
   159   160   158   ar
   160   160   162   ar
   161   154   155    1
   162   200   199    1
   163    15    14    2
   164   158   159   ar
   165    21    22   ar
   166    21    19   ar
   167   129   131   ar
   168    22    20   ar
   169   145   144    1
   170   145   146    2
   171    14    13    1
   172   162   161   ar
   173   144   147    1
   174    19    17   ar
   175    20    18   ar
   176   130   131   ar
   177   159   161   ar
   178   199   202    1
   179   199   198    1
   180   155   156    2
   181    17    18   ar
   182    17    16    1
   183    13    16    1
   184    13    12    1
   185   147   148    1
   186   167   164    1
   187   163   164    1
   188   148   149   ar
   189   148   150   ar
   190   164   165    1
   191   149   151   ar
   192   150   152   ar
   193   151   152   ar
   194   184   186   ar
   195   184   182   ar
   196   165   168   am
   197   165   166    2
   198   175   173    1
   199   168   169    1
   200   173   172    1
   201   186   185   ar
   202   182   181   ar
   203   172   169    1
   204   172   174    1
   205   169   170    1
   206   185   183   ar
   207   181   183   ar
   208   181   180    1
   209   170   171    2
   210   180   177    1
   211   176   177    1
   212   177   178    1
   213   178   187   am
   214   178   179    2
   215   187   188    1
   216   196   197   ar
   217   196   194   ar
   218   197   195   ar
   219   194   192   ar
   220   195   193   ar
   221   192   193   ar
   222   192   191    1
   223   191   188    1
   224   188   189    1
   225   189   190    2
