@<TRIPOS>MOLECULE
tmp/1eysB09.pdb
 112 110 0 0 0
SMALL
GASTEIGER

@<TRIPOS>ATOM
      1  N         30.6530   53.8890   40.3420 N.3    26  VAL26      -0.1245
      2  CA        29.7280   55.0120   40.4740 C.3    26  VAL26       0.1561
      3  C         28.9610   54.6380   41.7280 C.2    26  VAL26       0.2260
      4  O         28.1260   53.7470   41.6960 O.2    26  VAL26      -0.2867
      5  CB        28.7410   55.1070   39.3120 C.3    26  VAL26       0.0252
      6  CG1       27.6760   56.1320   39.6380 C.3    26  VAL26       0.0019
      7  CG2       29.4550   55.5070   38.0450 C.3    26  VAL26       0.0019
      8  N         28.3960   50.6830   42.4800 N.3    29  PHE29      -0.1227
      9  CA        28.4320   49.8700   41.2750 C.3    29  PHE29       0.1736
     10  C         29.7050   50.0360   40.4910 C.2    29  PHE29       0.2595
     11  O         30.2330   51.1300   40.3760 O.2    29  PHE29      -0.2718
     12  CB        27.2930   50.2210   40.3240 C.3    29  PHE29       0.0547
     13  CG        25.9630   50.3850   40.9840 C.ar   29  PHE29      -0.0202
     14  CD1       25.6090   51.5930   41.5670 C.ar   29  PHE29      -0.0042
     15  CD2       25.0280   49.3680   40.9520 C.ar   29  PHE29      -0.0042
     16  CE1       24.3350   51.7800   42.1020 C.ar   29  PHE29      -0.0003
     17  CE2       23.7590   49.5540   41.4850 C.ar   29  PHE29      -0.0003
     18  CZ        23.4180   50.7610   42.0560 C.ar   29  PHE29      -0.0000
     19  N         30.1970   48.9340   39.9520 N.am   30  TYR30      -0.1962
     20  CA        31.3630   48.9750   39.1080 C.3    30  TYR30       0.1771
     21  C         30.7390   49.1420   37.7440 C.2    30  TYR30       0.2619
     22  O         29.6880   48.5700   37.4730 O.2    30  TYR30      -0.2715
     23  CB        32.1100   47.6580   39.1770 C.3    30  TYR30       0.0574
     24  CG        33.0880   47.5090   38.0630 C.ar   30  TYR30      -0.0198
     25  CD1       34.1820   48.3620   37.9530 C.ar   30  TYR30      -0.0009
     26  CD2       32.8990   46.5420   37.0850 C.ar   30  TYR30      -0.0009
     27  CE1       35.0600   48.2510   36.8880 C.ar   30  TYR30       0.0417
     28  CE2       33.7650   46.4230   36.0250 C.ar   30  TYR30       0.0417
     29  CZ        34.8450   47.2770   35.9340 C.ar   30  TYR30       0.1957
     30  OH        35.7260   47.1180   34.9010 O.3    30  TYR30      -0.2866
     31  N         31.3430   49.9410   36.8860 N.am   31  VAL31      -0.1977
     32  CA        30.7660   50.1540   35.5760 C.3    31  VAL31       0.1596
     33  C         31.3400   49.1820   34.5720 C.2    31  VAL31       0.2287
     34  O         30.9000   48.0370   34.4900 O.2    31  VAL31      -0.2864
     35  CB        30.9630   51.6010   35.1290 C.3    31  VAL31       0.0276
     36  CG1       30.4320   51.7960   33.7390 C.3    31  VAL31       0.0022
     37  CG2       30.2220   52.5150   36.0550 C.3    31  VAL31       0.0022
     38  N         30.7630   46.9010   29.8660 N.3    34  PHE34      -0.1227
     39  CA        29.4990   46.2030   29.8740 C.3    34  PHE34       0.1736
     40  C         28.4870   46.8690   30.7580 C.2    34  PHE34       0.2596
     41  O         27.3170   46.5300   30.7170 O.2    34  PHE34      -0.2718
     42  CB        29.6980   44.7320   30.2100 C.3    34  PHE34       0.0547
     43  CG        30.3230   43.9570   29.0890 C.ar   34  PHE34      -0.0202
     44  CD1       31.5730   43.3780   29.2330 C.ar   34  PHE34      -0.0042
     45  CD2       29.6870   43.8750   27.8610 C.ar   34  PHE34      -0.0042
     46  CE1       32.1780   42.7370   28.1720 C.ar   34  PHE34      -0.0003
     47  CE2       30.2860   43.2380   26.7960 C.ar   34  PHE34      -0.0003
     48  CZ        31.5350   42.6690   26.9520 C.ar   34  PHE34      -0.0000
     49  N         28.9380   47.8430   31.5390 N.am   35  GLY35      -0.1957
     50  CA        28.0330   48.5880   32.3890 C.3    35  GLY35       0.1869
     51  C         27.4570   49.6630   31.5000 C.2    35  GLY35       0.2309
     52  O         26.3080   50.0640   31.6410 O.2    35  GLY35      -0.2863
     53  N         25.2500   47.7290   28.7030 N.3    38  GLY38      -0.1210
     54  CA        24.0840   47.2610   29.4140 C.3    38  GLY38       0.1956
     55  C         23.1170   48.3870   29.6720 C.2    38  GLY38       0.2611
     56  O         21.9430   48.2700   29.3520 O.2    38  GLY38      -0.2717
     57  N         23.6040   49.4830   30.2400 N.am   39  PHE39      -0.1976
     58  CA        22.7730   50.6440   30.5430 C.3    39  PHE39       0.1639
     59  C         22.1120   51.1860   29.2890 C.2    39  PHE39       0.2290
     60  O         21.0150   51.7260   29.3480 O.2    39  PHE39      -0.2864
     61  CB        23.6290   51.7260   31.1910 C.3    39  PHE39       0.0560
     62  CG        22.9410   53.0530   31.3360 C.ar   39  PHE39      -0.0200
     63  CD1       22.3870   53.4310   32.5460 C.ar   39  PHE39      -0.0042
     64  CD2       22.8770   53.9310   30.2710 C.ar   39  PHE39      -0.0042
     65  CE1       21.7790   54.6590   32.6920 C.ar   39  PHE39      -0.0003
     66  CE2       22.2730   55.1590   30.4070 C.ar   39  PHE39      -0.0003
     67  CZ        21.7220   55.5250   31.6220 C.ar   39  PHE39      -0.0000
     68  N         19.2190   48.7710   28.4290 N.3    42  THR42      -0.1203
     69  CA        18.1580   48.9610   29.3990 C.3    42  THR42       0.1994
     70  C         17.3430   50.1910   29.1100 C.2    42  THR42       0.2617
     71  O         16.1300   50.0950   28.9610 O.2    42  THR42      -0.2717
     72  CB        18.7050   49.0970   30.7960 C.3    42  THR42       0.1784
     73  OG1       19.3550   47.8840   31.1620 O.3    42  THR42      -0.2211
     74  CG2       17.5910   49.3690   31.7720 C.3    42  THR42       0.0376
     75  N         18.0120   51.3410   29.0150 N.am   43  LEU43      -0.1979
     76  CA        17.3570   52.6310   28.7550 C.3    43  LEU43       0.1596
     77  C         16.4950   52.6540   27.5030 C.2    43  LEU43       0.2287
     78  O         15.3820   53.1710   27.5250 O.2    43  LEU43      -0.2864
     79  CB        18.3850   53.7550   28.6710 C.3    43  LEU43       0.0297
     80  CG        17.7810   55.1510   28.4990 C.3    43  LEU43       0.0022
     81  CD1       17.7910   55.9000   29.8270 C.3    43  LEU43       0.0001
     82  CD2       18.5800   55.9080   27.4600 C.3    43  LEU43       0.0001
     83  N         20.6860   43.4650   27.3990 N.3   104  ALA104     -0.1245
     84  CA        20.8240   43.9830   28.7470 C.3   104  ALA104      0.1562
     85  C         21.2120   42.9030   29.7250 C.2   104  ALA104      0.2260
     86  O         22.0030   43.1470   30.6300 O.2   104  ALA104     -0.2867
     87  CB        19.5310   44.6290   29.1840 C.3   104  ALA104      0.0290
     88  N         24.9860   42.1760   31.6580 N.3   108  TRP108     -0.1241
     89  CA        25.0090   42.0730   33.1140 C.3   108  TRP108      0.1605
     90  C         25.8660   40.8900   33.5150 C.2   108  TRP108      0.2264
     91  O         26.7050   40.9910   34.4050 O.2   108  TRP108     -0.2867
     92  CB        23.5820   41.9200   33.6480 C.3   108  TRP108      0.0550
     93  CG        23.4540   41.9920   35.1300 C.ar  108  TRP108      0.0003
     94  CD1       23.5550   40.9600   36.0010 C.ar  108  TRP108      0.0946
     95  CD2       23.1490   43.1490   35.9120 C.ar  108  TRP108      0.0152
     96  NE1       23.3280   41.3910   37.2810 N.ar  108  TRP108     -0.2442
     97  CE2       23.0730   42.7340   37.2540 C.ar  108  TRP108      0.0810
     98  CE3       22.9300   44.4940   35.6110 C.ar  108  TRP108      0.0012
     99  CZ2       22.7860   43.6160   38.2950 C.ar  108  TRP108      0.0191
    100  CZ3       22.6470   45.3700   36.6470 C.ar  108  TRP108      0.0001
    101  CH2       22.5770   44.9250   37.9720 C.ar  108  TRP108      0.0015
    102  N         29.3640   41.5240   32.8050 N.3   111  ARG111     -0.1245
    103  CA        29.8620   42.4950   33.7600 C.3   111  ARG111      0.1563
    104  C         30.1950   41.8000   35.0660 C.2   111  ARG111      0.2260
    105  O         30.9970   42.2970   35.8430 O.2   111  ARG111     -0.2867
    106  CB        28.8200   43.5880   33.9740 C.3   111  ARG111      0.0307
    107  CG        29.1780   44.6940   34.9590 C.3   111  ARG111      0.0489
    108  CD        28.1020   45.7700   34.9560 C.3   111  ARG111      0.2205
    109  NE        28.0680   46.4970   36.2160 N.pl3 111  ARG111     -0.0865
    110  CZ        27.3120   46.1470   37.2440 C.cat 111  ARG111      0.5346
    111  NH1       26.5270   45.0910   37.1570 N.pl3 111  ARG111      0.1354
    112  NH2       27.3510   46.8400   38.3640 N.pl3 111  ARG111      0.1354
@<TRIPOS>BOND
     1    47    48   ar
     2    47    45   ar
     3    48    46   ar
     4    83    84    1
     5    82    80    1
     6    77    78    2
     7    77    76    1
     8    45    43   ar
     9    46    44   ar
    10    68    69    1
    11    80    79    1
    12    80    81    1
    13    79    76    1
    14    53    54    1
    15    84    87    1
    16    84    85    1
    17    76    75    1
    18    71    70    2
    19    75    70   am
    20    43    44   ar
    21    43    42    1
    22    70    69    1
    23    59    60    2
    24    59    58    1
    25    56    55    2
    26    69    72    1
    27    54    55    1
    28    55    57   am
    29    85    86    2
    30    38    39    1
    31    39    42    1
    32    39    40    1
    33    57    58    1
    34    64    66   ar
    35    64    62   ar
    36    66    67   ar
    37    58    61    1
    38    41    40    2
    39    40    49   am
    40    72    73    1
    41    72    74    1
    42    61    62    1
    43    62    63   ar
    44    51    52    2
    45    51    50    1
    46    49    50    1
    47    67    65   ar
    48    88    89    1
    49    63    65   ar
    50   102   103    1
    51    89    90    1
    52    89    92    1
    53    90    91    2
    54    92    93    1
    55    36    35    1
    56   103   106    1
    57   103   104    1
    58   106   107    1
    59    34    33    2
    60    33    32    1
    61    30    29    1
    62   108   107    1
    63   108   109    1
    64   104   105    2
    65    35    32    1
    66    35    37    1
    67    93    95   ar
    68    93    94   ar
    69    32    31    1
    70    98    95   ar
    71    98   100   ar
    72    95    97   ar
    73    29    28   ar
    74    29    27   ar
    75    94    96   ar
    76    28    26   ar
    77   109   110    2
    78   100   101   ar
    79    31    21   am
    80    27    25   ar
    81    26    24   ar
    82   111   110    1
    83   110   112    1
    84    97    96   ar
    85    97    99   ar
    86    22    21    2
    87    21    20    1
    88    25    24   ar
    89   101    99   ar
    90     7     5    1
    91    24    23    1
    92    20    23    1
    93    20    19    1
    94     5     6    1
    95     5     2    1
    96    19    10   am
    97    12    13    1
    98    12     9    1
    99     1     2    1
   100    11    10    2
   101     2     3    1
   102    10     9    1
   103    15    13   ar
   104    15    17   ar
   105    13    14   ar
   106     9     8    1
   107    17    18   ar
   108    14    16   ar
   109     4     3    2
   110    18    16   ar
