@<TRIPOS>MOLECULE
tmp/1eywA01.pdb
 82 76 0 0 0
SMALL
GASTEIGER

@<TRIPOS>ATOM
      1  N         33.3040   18.7070   18.5480 N.3    17  PHE17      -0.1241
      2  CA        34.5140   19.2880   18.0140 C.3    17  PHE17       0.1605
      3  C         34.8420   20.5540   18.8100 C.2    17  PHE17       0.2264
      4  O         34.1170   21.5360   18.7470 O.2    17  PHE17      -0.2867
      5  CB        34.2570   19.5760   16.5330 C.3    17  PHE17       0.0534
      6  CG        35.5320   19.9610   15.8110 C.ar   17  PHE17      -0.0203
      7  CD1       36.4100   20.8930   16.3570 C.ar   17  PHE17      -0.0042
      8  CD2       35.8820   19.3980   14.5890 C.ar   17  PHE17      -0.0042
      9  CE1       37.5950   21.2650   15.7240 C.ar   17  PHE17      -0.0003
     10  CE2       37.0630   19.7560   13.9360 C.ar   17  PHE17      -0.0003
     11  CZ        37.9280   20.6930   14.5000 C.ar   17  PHE17      -0.0000
     12  N         31.7380   24.9740    9.7580 N.3    59  ALA59      -0.1231
     13  CA        32.8520   24.0710    9.4980 C.3    59  ALA59       0.1694
     14  C         32.8700   22.8700   10.4360 C.2    59  ALA59       0.2592
     15  O         33.6780   21.9810   10.2410 O.2    59  ALA59      -0.2718
     16  CB        34.2090   24.7650    9.5130 C.3    59  ALA59       0.0304
     17  N         32.0030   22.8160   11.4520 N.am   60  GLY60      -0.1957
     18  CA        31.9990   21.6570   12.3370 C.3    60  GLY60       0.1869
     19  C         32.3420   21.9150   13.8030 C.2    60  GLY60       0.2309
     20  O         32.2080   21.0370   14.6530 O.2    60  GLY60      -0.2863
     21  N         31.8950   22.8770   17.5280 N.3    62  ARG62      -0.1245
     22  CA        30.7620   22.9480   18.4370 C.3    62  ARG62       0.1563
     23  C         31.0440   23.7720   19.6720 C.2    62  ARG62       0.2260
     24  O         30.1690   24.4620   20.1810 O.2    62  ARG62      -0.2867
     25  CB        30.3920   21.5590   18.8890 C.3    62  ARG62       0.0307
     26  CG        29.7370   20.8400   17.7260 C.3    62  ARG62       0.0489
     27  CD        29.8370   19.3340   17.8900 C.3    62  ARG62       0.2205
     28  NE        30.9990   18.7220   17.2340 N.pl3  62  ARG62      -0.0865
     29  CZ        31.0000   17.4380   16.8610 C.cat  62  ARG62       0.5346
     30  NH1       29.9290   16.6530   17.0630 N.pl3  62  ARG62       0.1354
     31  NH2       32.0750   16.9160   16.2630 N.pl3  62  ARG62       0.1354
     32  N         39.6590   23.3330   10.9660 N.3   294  PRO294     -0.2116
     33  CA        38.8550   22.3600   10.1970 C.3   294  PRO294      0.1372
     34  C         38.9120   22.5120    8.6870 C.2   294  PRO294      0.2244
     35  O         38.8370   21.5520    7.9410 O.2   294  PRO294     -0.2868
     36  CB        37.3930   22.5780   10.6220 C.3   294  PRO294      0.0268
     37  CG        37.3470   23.9620   11.2550 C.3   294  PRO294      0.0207
     38  CD        38.7750   24.2750   11.7230 C.3   294  PRO294      0.0892
     39  N         43.0160   20.1860    8.9430 N.3   298  ILE298     -0.1245
     40  CA        42.4980   18.8200    8.8790 C.3   298  ILE298      0.1561
     41  C         42.7460   18.1540    7.5150 C.2   298  ILE298      0.2260
     42  O         43.3380   17.0820    7.4140 O.2   298  ILE298     -0.2867
     43  CB        41.0250   18.7530    9.3370 C.3   298  ILE298      0.0252
     44  CG1       40.8120   19.1030   10.8050 C.3   298  ILE298      0.0019
     45  CG2       40.3630   17.4100    9.0210 C.3   298  ILE298      0.0019
     46  CD1       41.9160   18.6380   11.7240 C.3   298  ILE298      0.0001
     47  N         41.6330    9.8290    9.1160 N.3   308  GLN308     -0.1245
     48  CA        40.5530   10.6800    9.5380 C.3   308  GLN308      0.1566
     49  C         40.1360   10.4210   10.9950 C.2   308  GLN308      0.2260
     50  O         39.8410   11.3600   11.7450 O.2   308  GLN308     -0.2867
     51  CB        39.3980   10.7060    8.5250 C.3   308  GLN308      0.0367
     52  CG        38.4350   11.8760    8.7960 C.3   308  GLN308      0.0905
     53  CD        38.0850   12.6560    7.5490 C.2   308  GLN308      0.2608
     54  OE1       37.3450   12.1560    6.6900 O.2   308  GLN308     -0.2717
     55  NE2       38.6340   13.8680    7.4380 N.am  308  GLN308     -0.0878
     56  N         42.3540   12.0420   13.4900 N.3   311  LEU311     -0.1231
     57  CA        42.0410   13.4520   13.5260 C.3   311  LEU311      0.1693
     58  C         40.8090   13.7430   14.3880 C.2   311  LEU311      0.2591
     59  O         40.7600   14.7150   15.1430 O.2   311  LEU311     -0.2718
     60  CB        41.9790   14.0570   12.1080 C.3   311  LEU311      0.0284
     61  CG        43.2780   13.8740   11.2990 C.3   311  LEU311      0.0019
     62  CD1       43.0960   14.4040    9.8850 C.3   311  LEU311      0.0001
     63  CD2       44.4440   14.6200   11.9370 C.3   311  LEU311      0.0001
     64  N         39.8120   12.8790   14.2850 N.am  312  ALA312     -0.1980
     65  CA        38.5960   13.0420   15.0670 C.3   312  ALA312      0.1597
     66  C         38.8680   12.8640   16.5540 C.2   312  ALA312      0.2287
     67  O         38.2890   13.5340   17.4000 O.2   312  ALA312     -0.2864
     68  CB        37.5170   12.0810   14.5830 C.3   312  ALA312      0.0319
     69  N         40.4310   16.1830   17.8810 N.3   315  THR315     -0.1203
     70  CA        39.5000   17.3190   17.9690 C.3   315  THR315      0.1994
     71  C         38.2220   17.1370   18.8160 C.2   315  THR315      0.2617
     72  O         37.5530   18.1190   19.1900 O.2   315  THR315     -0.2717
     73  CB        39.1800   17.8530   16.5550 C.3   315  THR315      0.1784
     74  OG1       38.5670   16.8170   15.8090 O.3   315  THR315     -0.2211
     75  CG2       40.4460   18.2970   15.8260 C.3   315  THR315      0.0376
     76  N         37.8870   15.8740   19.1070 N.am  316  VAL316     -0.1979
     77  CA        36.7040   15.5500   19.8880 C.3   316  VAL316      0.1595
     78  C         37.0390   14.8460   21.1850 C.2   316  VAL316      0.2287
     79  O         36.7510   15.3470   22.2690 O.2   316  VAL316     -0.2864
     80  CB        35.7190   14.6840   19.0970 C.3   316  VAL316      0.0276
     81  CG1       34.4360   14.4240   19.9030 C.3   316  VAL316      0.0022
     82  CG2       35.3370   15.3960   17.8170 C.3   316  VAL316      0.0022
@<TRIPOS>BOND
     1    54    53    2
     2    42    41    2
     3    55    53   am
     4    41    40    1
     5    53    52    1
     6    35    34    2
     7    51    52    1
     8    51    48    1
     9    34    33    1
    10    40    39    1
    11    40    43    1
    12    45    43    1
    13    47    48    1
    14    43    44    1
    15    13    16    1
    16    13    12    1
    17    13    14    1
    18    48    49    1
    19    62    61    1
    20    33    36    1
    21    33    32    1
    22    15    14    2
    23    14    17   am
    24    36    37    1
    25    44    46    1
    26    32    38    1
    27    49    50    2
    28    37    38    1
    29    61    63    1
    30    61    60    1
    31    17    18    1
    32    60    57    1
    33    18    19    1
    34    56    57    1
    35    57    58    1
    36    19    20    2
    37    10    11   ar
    38    10     8   ar
    39    64    58   am
    40    64    65    1
    41    58    59    2
    42    11     9   ar
    43    68    65    1
    44     8     6   ar
    45    65    66    1
    46     9     7   ar
    47    74    73    1
    48     6     7   ar
    49     6     5    1
    50    75    73    1
    51    31    29    1
    52     5     2    1
    53    66    67    2
    54    73    70    1
    55    29    30    1
    56    29    28    2
    57    28    27    1
    58    21    22    1
    59    26    27    1
    60    26    25    1
    61    82    80    1
    62    69    70    1
    63    70    71    1
    64     2     1    1
    65     2     3    1
    66    22    25    1
    67    22    23    1
    68     4     3    2
    69    71    76   am
    70    71    72    2
    71    80    77    1
    72    80    81    1
    73    76    77    1
    74    23    24    2
    75    77    78    1
    76    78    79    2
