@<TRIPOS>MOLECULE
tmp/1eywA00.pdb
 148 144 0 0 0
SMALL
GASTEIGER

@<TRIPOS>ATOM
      1  N         40.1460   33.0420   21.9580 N.3    23  HIS23      -0.1241
      2  CA        39.7450   34.2280   22.6960 C.3    23  HIS23       0.1621
      3  C         38.7030   34.9640   21.8980 C.2    23  HIS23       0.2264
      4  O         38.7990   35.0220   20.6760 O.2    23  HIS23      -0.2867
      5  CB        40.8890   35.2580   22.7950 C.3    23  HIS23       0.0745
      6  CG        42.1340   34.7490   23.4750 C.ar   23  HIS23       0.0817
      7  ND1       42.2630   34.7670   24.8770 N.ar   23  HIS23      -0.2268
      8  CD2       43.2730   34.2080   22.9320 C.ar   23  HIS23       0.1154
      9  CE1       43.4740   34.2470   25.1350 C.ar   23  HIS23       0.1986
     10  NE2       44.1080   33.9060   23.9970 N.ar   23  HIS23      -0.2212
     11  N         41.2030   39.9510   22.9470 N.3    26  GLY26      -0.1225
     12  CA        42.4630   40.0310   23.7080 C.3    26  GLY26       0.1811
     13  C         42.5720   41.4790   24.1820 C.2    26  GLY26       0.2280
     14  O         42.8320   42.3790   23.4030 O.2    26  GLY26      -0.2866
     15  N         43.3110   39.5390   30.8750 N.3    72  ILE72      -0.1245
     16  CA        43.1820   39.5370   29.4400 C.3    72  ILE72       0.1561
     17  C         41.9000   40.3370   29.1470 C.2    72  ILE72       0.2260
     18  O         41.4840   40.4730   28.0110 O.2    72  ILE72      -0.2867
     19  CB        43.2360   38.1330   28.8120 C.3    72  ILE72       0.0252
     20  CG1       44.6640   37.5660   28.9680 C.3    72  ILE72       0.0019
     21  CG2       42.8610   38.1730   27.3240 C.3    72  ILE72       0.0019
     22  CD1       44.8490   36.1270   28.4580 C.3    72  ILE72       0.0001
     23  N         47.2010   35.7790   33.5510 N.3    97  TRP97      -0.1227
     24  CA        48.1220   35.8090   32.4090 C.3    97  TRP97       0.1737
     25  C         49.3260   36.6590   32.7610 C.2    97  TRP97       0.2595
     26  O         49.6950   36.7170   33.9290 O.2    97  TRP97      -0.2718
     27  CB        47.3540   36.2860   31.1750 C.3    97  TRP97       0.0564
     28  CG        47.9960   36.4520   29.8210 C.ar   97  TRP97       0.0003
     29  CD1       48.4470   35.4980   28.9630 C.ar   97  TRP97       0.0946
     30  CD2       48.1110   37.6950   29.1390 C.ar   97  TRP97       0.0152
     31  NE1       48.8550   36.0700   27.7870 N.ar   97  TRP97      -0.2442
     32  CE2       48.6700   37.4240   27.8700 C.ar   97  TRP97       0.0810
     33  CE3       47.7800   39.0190   29.5040 C.ar   97  TRP97       0.0012
     34  CZ2       48.9160   38.4530   26.9520 C.ar   97  TRP97       0.0191
     35  CZ3       48.0210   40.0310   28.5960 C.ar   97  TRP97       0.0001
     36  CH2       48.5830   39.7430   27.3390 C.ar   97  TRP97       0.0015
     37  N         49.9610   37.3330   31.8150 N.am   98  PHE98      -0.1976
     38  CA        51.1160   38.0910   32.2470 C.3    98  PHE98       0.1639
     39  C         50.9940   39.5960   32.4400 C.2    98  PHE98       0.2290
     40  O         51.9830   40.3050   32.4200 O.2    98  PHE98      -0.2864
     41  CB        52.3930   37.6690   31.4870 C.3    98  PHE98       0.0560
     42  CG        52.2480   37.7470   29.9850 C.ar   98  PHE98      -0.0200
     43  CD1       52.3210   38.9900   29.3600 C.ar   98  PHE98      -0.0042
     44  CD2       52.0830   36.6090   29.1890 C.ar   98  PHE98      -0.0042
     45  CE1       52.2040   39.1020   27.9730 C.ar   98  PHE98      -0.0003
     46  CE2       51.9700   36.7010   27.8020 C.ar   98  PHE98      -0.0003
     47  CZ        52.0260   37.9560   27.1960 C.ar   98  PHE98      -0.0000
     48  N         50.3910   29.2220   28.8610 N.3   166  HIS166     -0.1241
     49  CA        51.0010   30.0170   27.8330 C.3   166  HIS166      0.1621
     50  C         52.5030   29.8020   28.0870 C.2   166  HIS166      0.2264
     51  O         52.9330   29.8490   29.2290 O.2   166  HIS166     -0.2867
     52  CB        50.7000   31.5200   28.0020 C.3   166  HIS166      0.0745
     53  CG        51.5110   32.4260   27.0900 C.ar  166  HIS166      0.0817
     54  ND1       50.9300   33.1140   26.0090 N.ar  166  HIS166     -0.2268
     55  CD2       52.8420   32.7400   27.1240 C.ar  166  HIS166      0.1154
     56  CE1       51.9040   33.8120   25.4240 C.ar  166  HIS166      0.1986
     57  NE2       53.0590   33.6070   26.0770 N.ar  166  HIS166     -0.2212
     58  N         51.1370   26.8070   23.1950 N.3   195  HIS195     -0.1241
     59  CA        52.0130   27.4920   22.2510 C.3   195  HIS195      0.1621
     60  C         53.1920   26.5980   21.9120 C.2   195  HIS195      0.2264
     61  O         54.2480   27.0630   21.5580 O.2   195  HIS195     -0.2867
     62  CB        52.4890   28.8330   22.8280 C.3   195  HIS195      0.0745
     63  CG        51.3020   29.6600   23.1840 C.ar  195  HIS195      0.0817
     64  ND1       50.0670   29.4420   22.5920 N.ar  195  HIS195     -0.2268
     65  CD2       51.1660   30.6740   24.0510 C.ar  195  HIS195      0.1154
     66  CE1       49.2120   30.3210   23.0980 C.ar  195  HIS195      0.1986
     67  NE2       49.8320   31.0810   23.9980 N.ar  195  HIS195     -0.2212
     68  N         49.1040   27.5100   17.6450 N.3   219  HIS219     -0.1241
     69  CA        49.4760   28.7180   16.9230 C.3   219  HIS219      0.1621
     70  C         49.5990   28.4310   15.4430 C.2   219  HIS219      0.2264
     71  O         50.2630   29.1490   14.7260 O.2   219  HIS219     -0.2867
     72  CB        50.8510   29.1830   17.4310 C.3   219  HIS219      0.0745
     73  CG        50.6690   30.1570   18.5410 C.ar  219  HIS219      0.0817
     74  ND1       51.7440   30.7480   19.1980 N.ar  219  HIS219     -0.2268
     75  CD2       49.5200   30.6490   19.0910 C.ar  219  HIS219      0.1154
     76  CE1       51.2370   31.5780   20.1160 C.ar  219  HIS219      0.1986
     77  NE2       49.9000   31.5440   20.0770 N.ar  219  HIS219     -0.2212
     78  N         49.4850   31.1360   12.8870 N.3   222  HIS222     -0.1241
     79  CA        50.3440   32.2770   13.2530 C.3   222  HIS222      0.1621
     80  C         51.5740   32.3560   12.3530 C.2   222  HIS222      0.2264
     81  O         52.5350   31.5840   12.5030 O.2   222  HIS222     -0.2867
     82  CB        50.7430   32.2670   14.7570 C.3   222  HIS222      0.0745
     83  CG        49.5550   32.5380   15.6330 C.ar  222  HIS222      0.0817
     84  ND1       49.5930   33.4530   16.6660 N.ar  222  HIS222     -0.2268
     85  CD2       48.2960   32.0150   15.5850 C.ar  222  HIS222      0.1154
     86  CE1       48.3760   33.4630   17.2280 C.ar  222  HIS222      0.1986
     87  NE2       47.5780   32.6010   16.5930 N.ar  222  HIS222     -0.2212
     88  N         55.2960   39.2790   16.6060 N.3   236  LEU236     -0.1245
     89  CA        54.1990   38.5180   17.1670 C.3   236  LEU236      0.1561
     90  C         53.9680   37.1100   16.5700 C.2   236  LEU236      0.2260
     91  O         53.8370   36.1060   17.2790 O.2   236  LEU236     -0.2867
     92  CB        52.9100   39.3620   17.0290 C.3   236  LEU236      0.0270
     93  CG        51.6440   38.6970   17.5790 C.3   236  LEU236      0.0019
     94  CD1       51.7600   38.5310   19.0780 C.3   236  LEU236      0.0001
     95  CD2       50.4210   39.5440   17.2750 C.3   236  LEU236      0.0001
     96  N         44.3390   29.9970   18.6070 N.3   266  ASP266     -0.1239
     97  CA        44.7470   31.1340   19.4060 C.3   266  ASP266      0.1674
     98  C         44.3070   32.3880   18.6570 C.2   266  ASP266      0.2266
     99  O         45.0400   33.3790   18.5420 O.2   266  ASP266     -0.2867
    100  CB        46.2440   31.1530   19.8090 C.3   266  ASP266      0.1410
    101  CG        46.5900   32.1640   20.8960 C.2   266  ASP266      0.3668
    102  OD1       47.6880   32.6410   21.0110 O.co2 266  ASP266     -0.2456
    103  OD2       45.6310   32.4910   21.7330 O.co2 266  ASP266     -0.2456
    104  N         41.2830   35.5420   17.6660 N.3   268  LEU268     -0.1245
    105  CA        40.5360   36.5740   18.4030 C.3   268  LEU268      0.1561
    106  C         39.7860   37.4710   17.4430 C.2   268  LEU268      0.2260
    107  O         40.0730   37.4660   16.2400 O.2   268  LEU268     -0.2867
    108  CB        41.3220   37.4150   19.4410 C.3   268  LEU268      0.0270
    109  CG        42.8410   37.3870   19.3010 C.3   268  LEU268      0.0019
    110  CD1       43.2680   37.9500   17.9560 C.3   268  LEU268      0.0001
    111  CD2       43.4340   38.2250   20.4200 C.3   268  LEU268      0.0001
    112  N         41.6180   42.9220   19.5840 N.3   271  PHE271     -0.1241
    113  CA        42.9280   42.7910   20.2200 C.3   271  PHE271      0.1605
    114  C         43.4570   44.1870   20.5610 C.2   271  PHE271      0.2264
    115  O         43.9290   44.8930   19.6860 O.2   271  PHE271     -0.2867
    116  CB        43.8040   42.1220   19.1180 C.3   271  PHE271      0.0534
    117  CG        45.1410   41.5610   19.5580 C.ar  271  PHE271     -0.0203
    118  CD1       45.5910   41.6870   20.8740 C.ar  271  PHE271     -0.0042
    119  CD2       45.9610   40.9010   18.6430 C.ar  271  PHE271     -0.0042
    120  CE1       46.8270   41.1790   21.2740 C.ar  271  PHE271     -0.0003
    121  CE2       47.1990   40.3830   19.0230 C.ar  271  PHE271     -0.0003
    122  CZ        47.6330   40.5280   20.3400 C.ar  271  PHE271     -0.0000
    123  N         45.5860   44.7000   23.3660 N.3   273  SER273     -0.1202
    124  CA        46.8360   44.5670   24.0740 C.3   273  SER273      0.2020
    125  C         48.0750   44.5000   23.1940 C.2   273  SER273      0.2618
    126  O         49.0900   43.9440   23.5980 O.2   273  SER273     -0.2717
    127  CB        46.7860   43.4040   25.0480 C.3   273  SER273      0.2103
    128  OG        46.4630   42.2340   24.3170 O.3   273  SER273     -0.2182
    129  N         48.0080   45.0670   21.9970 N.am  274  TYR274     -0.1975
    130  CA        49.1570   45.0860   21.1000 C.3   274  TYR274      0.1639
    131  C         49.0760   46.3810   20.3110 C.2   274  TYR274      0.2290
    132  O         48.3020   47.2690   20.6640 O.2   274  TYR274     -0.2864
    133  CB        49.2090   43.8670   20.1390 C.3   274  TYR274      0.0560
    134  CG        50.5930   43.5550   19.5690 C.ar  274  TYR274     -0.0198
    135  CD1       51.7040   43.4440   20.4060 C.ar  274  TYR274     -0.0009
    136  CD2       50.8030   43.3530   18.2040 C.ar  274  TYR274     -0.0009
    137  CE1       52.9820   43.1560   19.9200 C.ar  274  TYR274      0.0417
    138  CE2       52.0710   43.0560   17.6960 C.ar  274  TYR274      0.0417
    139  CZ        53.1690   42.9540   18.5520 C.ar  274  TYR274      0.1957
    140  OH        54.4230   42.6620   18.0650 O.3   274  TYR274     -0.2866
    141  N         46.1200   40.6610   11.1290 N.3   282  MET282     -0.1245
    142  CA        45.7770   39.2580   11.4050 C.3   282  MET282      0.1570
    143  C         44.6840   38.6840   10.5190 C.2   282  MET282      0.2261
    144  O         44.7730   37.5390   10.0500 O.2   282  MET282     -0.2867
    145  CB        45.5330   38.9910   12.9130 C.3   282  MET282      0.0387
    146  CG        46.8510   38.9680   13.6780 C.3   282  MET282      0.0595
    147  SD        46.5440   38.6920   15.4070 S.3   282  MET282     -0.1393
    148  CE        46.2220   36.9000   15.4070 C.3   282  MET282      0.0692
@<TRIPOS>BOND
     1   144   143    2
     2   143   142    1
     3   141   142    1
     4   142   145    1
     5    80    81    2
     6    80    79    1
     7    78    79    1
     8   145   146    1
     9    79    82    1
    10   146   147    1
    11    71    70    2
    12    82    83    1
    13   147   148    1
    14    70    69    1
    15    85    83   ar
    16    85    87   ar
    17    83    84   ar
    18   107   106    2
    19    90    89    1
    20    90    91    2
    21    87    86   ar
    22    88    89    1
    23    84    86   ar
    24    69    72    1
    25    69    68    1
    26    92    89    1
    27    92    93    1
    28    95    93    1
    29    72    73    1
    30   106   105    1
    31    93    94    1
    32   104   105    1
    33   138   136   ar
    34   138   139   ar
    35   110   109    1
    36   140   139    1
    37   136   134   ar
    38   105   108    1
    39    73    75   ar
    40    73    74   ar
    41    99    98    2
    42   139   137   ar
    43    96    97    1
    44   119   121   ar
    45   119   117   ar
    46    98    97    1
    47   121   122   ar
    48    75    77   ar
    49   116   117    1
    50   116   113    1
    51    74    76   ar
    52   109   108    1
    53   109   111    1
    54    97   100    1
    55   117   118   ar
    56   134   133    1
    57   134   135   ar
    58   112   113    1
    59   115   114    2
    60   100   101    1
    61   137   135   ar
    62    77    76   ar
    63   133   130    1
    64   113   114    1
    65   131   132    2
    66   131   130    1
    67   122   120   ar
    68     4     3    2
    69   118   120   ar
    70   101   102   ar
    71   101   103   ar
    72   130   129    1
    73    61    60    2
    74     3     2    1
    75    60    59    1
    76     1     2    1
    77   129   125   am
    78    59    62    1
    79    59    58    1
    80    64    66   ar
    81    64    63   ar
    82     2     5    1
    83     5     6    1
    84    62    63    1
    85     8     6   ar
    86     8    10   ar
    87    11    12    1
    88    66    67   ar
    89    63    65   ar
    90   125   126    2
    91   125   124    1
    92   123   124    1
    93    14    13    2
    94     6     7   ar
    95    12    13    1
    96    10     9   ar
    97    67    65   ar
    98   124   127    1
    99   128   127    1
   100     7     9   ar
   101    56    54   ar
   102    56    57   ar
   103    54    53   ar
   104    57    55   ar
   105    34    36   ar
   106    34    32   ar
   107    53    55   ar
   108    53    52    1
   109    47    46   ar
   110    47    45   ar
   111    21    19    1
   112    36    35   ar
   113    31    32   ar
   114    31    29   ar
   115    46    44   ar
   116    49    52    1
   117    49    50    1
   118    49    48    1
   119    32    30   ar
   120    45    43   ar
   121    18    17    2
   122    50    51    2
   123    22    20    1
   124    35    33   ar
   125    19    20    1
   126    19    16    1
   127    29    28   ar
   128    30    33   ar
   129    30    28   ar
   130    17    16    1
   131    44    42   ar
   132    43    42   ar
   133    16    15    1
   134    28    27    1
   135    42    41    1
   136    27    24    1
   137    41    38    1
   138    37    38    1
   139    37    25   am
   140    38    39    1
   141    24    25    1
   142    24    23    1
   143    40    39    2
   144    25    26    2
