@<TRIPOS>MOLECULE
tmp/1eyyA00.pdb
 167 159 0 0 0
SMALL
GASTEIGER

@<TRIPOS>ATOM
      1  N         42.3380   36.0090   52.1540 N.3   139  PHE139     -0.1227
      2  CA        41.7660   37.2370   52.7070 C.3   139  PHE139      0.1736
      3  C         41.5650   38.1540   51.5050 C.2   139  PHE139      0.2596
      4  O         42.5330   38.5360   50.8520 O.2   139  PHE139     -0.2718
      5  CB        42.7270   37.9030   53.7050 C.3   139  PHE139      0.0547
      6  CG        42.9220   37.1240   54.9740 C.ar  139  PHE139     -0.0202
      7  CD1       43.7090   35.9780   54.9910 C.ar  139  PHE139     -0.0042
      8  CD2       42.2990   37.5260   56.1550 C.ar  139  PHE139     -0.0042
      9  CE1       43.8730   35.2420   56.1680 C.ar  139  PHE139     -0.0003
     10  CE2       42.4570   36.7940   57.3320 C.ar  139  PHE139     -0.0003
     11  CZ        43.2480   35.6480   57.3360 C.ar  139  PHE139     -0.0000
     12  N         40.3170   38.5000   51.2060 N.am  140  GLY140     -0.1957
     13  CA        40.0420   39.3560   50.0600 C.3   140  GLY140      0.1869
     14  C         40.2770   40.8340   50.2990 C.2   140  GLY140      0.2309
     15  O         40.3420   41.2770   51.4380 O.2   140  GLY140     -0.2863
     16  N         39.2950   44.8490   50.1670 N.3   142  SER142     -0.1217
     17  CA        38.0760   45.6230   50.3500 C.3   142  SER142      0.1889
     18  C         37.7800   46.4960   49.1360 C.2   142  SER142      0.2288
     19  O         36.6220   46.7470   48.8310 O.2   142  SER142     -0.2866
     20  CB        38.1880   46.5050   51.5940 C.3   142  SER142      0.2089
     21  OG        39.2110   47.4770   51.4460 O.3   142  SER142     -0.2183
     22  N         38.4040   34.0130   54.4710 N.3   168  LYS168     -0.1245
     23  CA        38.0370   34.7300   55.6800 C.3   168  LYS168      0.1561
     24  C         37.3520   35.9590   55.0970 C.2   168  LYS168      0.2260
     25  O         38.0100   36.9290   54.7250 O.2   168  LYS168     -0.2867
     26  CB        39.2810   35.1310   56.4920 C.3   168  LYS168      0.0271
     27  CG        38.9900   35.5200   57.9460 C.3   168  LYS168      0.0035
     28  CD        38.0030   36.6900   58.0890 C.3   168  LYS168      0.0206
     29  CE        38.6070   38.0220   57.6270 C.3   168  LYS168      0.1093
     30  NZ        37.7270   39.2010   57.9500 N.3   168  LYS168     -0.1314
     31  N         35.8210   39.3200   54.1100 N.3   170  HIS170     -0.1226
     32  CA        36.1290   40.6700   54.5470 C.3   170  HIS170      0.1752
     33  C         34.8670   41.2590   55.1820 C.2   170  HIS170      0.2596
     34  O         33.7690   41.1110   54.6300 O.2   170  HIS170     -0.2718
     35  CB        36.5580   41.5160   53.3490 C.3   170  HIS170      0.0759
     36  CG        37.3110   42.7540   53.7250 C.ar  170  HIS170      0.0818
     37  ND1       36.7540   43.7690   54.4730 N.ar  170  HIS170     -0.2268
     38  CD2       38.5850   43.1330   53.4630 C.ar  170  HIS170      0.1154
     39  CE1       37.6530   44.7200   54.6550 C.ar  170  HIS170      0.1986
     40  NE2       38.7720   44.3580   54.0530 N.ar  170  HIS170     -0.2212
     41  N         35.0130   41.9220   56.3300 N.am  171  THR171     -0.1953
     42  CA        33.8540   42.5050   57.0090 C.3   171  THR171      0.1897
     43  C         33.2630   43.7240   56.3050 C.2   171  THR171      0.2313
     44  O         32.1990   44.2040   56.6950 O.2   171  THR171     -0.2863
     45  CB        34.1810   42.9100   58.4780 C.3   171  THR171      0.1794
     46  OG1       35.2460   43.8670   58.4830 O.3   171  THR171     -0.2208
     47  CG2       34.5850   41.6880   59.3070 C.3   171  THR171      0.0378
     48  N         33.0500   37.0740   60.0200 N.3   203  GLY203     -0.1210
     49  CA        33.2380   37.5340   61.3790 C.3   203  GLY203      0.1956
     50  C         33.9780   38.8480   61.4840 C.2   203  GLY203      0.2612
     51  O         34.8720   39.1240   60.6930 O.2   203  GLY203     -0.2717
     52  N         33.6050   39.6640   62.4620 N.am  204  ASN204     -0.1960
     53  CA        34.2630   40.9420   62.6550 C.3   204  ASN204      0.1819
     54  C         35.2530   40.9280   63.8270 C.2   204  ASN204      0.2621
     55  O         35.6930   41.9820   64.2960 O.2   204  ASN204     -0.2715
     56  CB        33.2190   42.0520   62.8190 C.3   204  ASN204      0.1195
     57  CG        32.2870   41.8240   63.9900 C.2   204  ASN204      0.2630
     58  OD1       32.1550   40.7150   64.5010 O.2   204  ASN204     -0.2716
     59  ND2       31.6170   42.8860   64.4110 N.am  204  ASN204     -0.0877
     60  N         35.6110   39.7290   64.2840 N.am  205  GLN205     -0.1963
     61  CA        36.5760   39.5730   65.3740 C.3   205  GLN205      0.1733
     62  C         37.8830   39.0380   64.8010 C.2   205  GLN205      0.2616
     63  O         37.9340   37.9200   64.2900 O.2   205  GLN205     -0.2715
     64  CB        36.0330   38.6180   66.4360 C.3   205  GLN205      0.0408
     65  CG        34.9050   39.2210   67.2540 C.3   205  GLN205      0.0908
     66  CD        34.3750   38.2820   68.3210 C.2   205  GLN205      0.2608
     67  OE1       33.5190   38.6630   69.1270 O.2   205  GLN205     -0.2717
     68  NE2       34.8750   37.0450   68.3290 N.am  205  GLN205     -0.0878
     69  N         38.9390   39.8430   64.8900 N.am  206  ARG206     -0.1977
     70  CA        40.2500   39.4800   64.3540 C.3   206  ARG206      0.1597
     71  C         40.7910   38.1170   64.7940 C.2   206  ARG206      0.2287
     72  O         41.6460   37.5410   64.1140 O.2   206  ARG206     -0.2864
     73  CB        41.2710   40.5800   64.6760 C.3   206  ARG206      0.0334
     74  CG        40.9550   41.9280   64.0210 C.3   206  ARG206      0.0492
     75  CD        40.7400   41.7680   62.5240 C.3   206  ARG206      0.2205
     76  NE        40.4560   43.0160   61.8120 N.pl3 206  ARG206     -0.0865
     77  CZ        41.3180   44.0190   61.6570 C.cat 206  ARG206      0.5346
     78  NH1       42.5410   43.9430   62.1720 N.pl3 206  ARG206      0.1354
     79  NH2       40.9670   45.0910   60.9550 N.pl3 206  ARG206      0.1354
     80  N         40.7090   35.5080   61.8460 N.3   209  GLY209     -0.1210
     81  CA        41.7870   35.4950   60.8680 C.3   209  GLY209      0.1956
     82  C         43.0780   34.9330   61.4350 C.2   209  GLY209      0.2611
     83  O         43.8230   34.2170   60.7570 O.2   209  GLY209     -0.2717
     84  N         43.3360   35.2590   62.6960 N.am  210  GLN210     -0.1979
     85  CA        44.5300   34.7950   63.3770 C.3   210  GLN210      0.1601
     86  C         44.5150   33.2800   63.5580 C.2   210  GLN210      0.2287
     87  O         45.5340   32.6140   63.3670 O.2   210  GLN210     -0.2864
     88  CB        44.6480   35.5000   64.7310 C.3   210  GLN210      0.0394
     89  CG        45.1540   36.9260   64.6320 C.3   210  GLN210      0.0908
     90  CD        44.6370   37.8060   65.7530 C.2   210  GLN210      0.2608
     91  OE1       44.3900   37.3310   66.8580 O.2   210  GLN210     -0.2717
     92  NE2       44.4790   39.0980   65.4740 N.am  210  GLN210     -0.0878
     93  N         46.7080   37.1790   50.7620 N.3   223  PHE223     -0.1227
     94  CA        46.2060   38.3560   51.4650 C.3   223  PHE223      0.1736
     95  C         46.3810   39.6450   50.6720 C.2   223  PHE223      0.2596
     96  O         47.3990   39.8640   50.0240 O.2   223  PHE223     -0.2718
     97  CB        46.9270   38.4590   52.8230 C.3   223  PHE223      0.0547
     98  CG        46.6200   39.7140   53.6070 C.ar  223  PHE223     -0.0202
     99  CD1       47.2370   40.9230   53.2950 C.ar  223  PHE223     -0.0042
    100  CD2       45.7120   39.6880   54.6620 C.ar  223  PHE223     -0.0042
    101  CE1       46.9520   42.0890   54.0230 C.ar  223  PHE223     -0.0003
    102  CE2       45.4230   40.8480   55.3910 C.ar  223  PHE223     -0.0003
    103  CZ        46.0410   42.0440   55.0710 C.ar  223  PHE223     -0.0000
    104  N         45.3650   40.4960   50.7260 N.am  224  THR224     -0.1939
    105  CA        45.4030   41.7790   50.0350 C.3   224  THR224      0.2031
    106  C         44.8390   42.7820   51.0200 C.2   224  THR224      0.2682
    107  O         43.6820   42.6800   51.3960 O.2   224  THR224     -0.2710
    108  CB        44.5210   41.7710   48.7650 C.3   224  THR224      0.1808
    109  OG1       44.9290   40.7050   47.8960 O.3   224  THR224     -0.2208
    110  CG2       44.6480   43.0960   48.0240 C.3   224  THR224      0.0379
    111  N         45.6600   43.7330   51.4530 N.am  225  GLY225     -0.1715
    112  CA        45.2030   44.7290   52.4070 C.2   225  GLY225      0.1480
    113  C         46.2890   45.6320   52.9690 C.2   225  GLY225      0.2821
    114  O         47.3280   45.8560   52.3390 O.2   225  GLY225     -0.2669
    115  N         46.0460   46.1480   54.1710 N.am  226  SER226     -0.1915
    116  CA        46.9740   47.0640   54.8390 C.3   226  SER226      0.1927
    117  C         48.2800   46.4120   55.2840 C.2   226  SER226      0.2314
    118  O         48.3110   45.2270   55.6320 O.2   226  SER226     -0.2863
    119  CB        46.2990   47.6980   56.0610 C.3   226  SER226      0.2116
    120  OG        46.0940   46.7410   57.0920 O.3   226  SER226     -0.2180
    121  N         48.0990   45.1080   59.2600 N.3   229  GLY229     -0.1210
    122  CA        47.4920   43.8150   59.5090 C.3   229  GLY229      0.1956
    123  C         48.1680   42.7430   58.6770 C.2   229  GLY229      0.2612
    124  O         48.3720   41.6140   59.1250 O.2   229  GLY229     -0.2717
    125  N         48.5310   43.1130   57.4550 N.am  230  GLY230     -0.1956
    126  CA        49.1810   42.1790   56.5620 C.3   230  GLY230      0.1869
    127  C         50.4770   41.6550   57.1220 C.2   230  GLY230      0.2309
    128  O         50.7090   40.4480   57.1040 O.2   230  GLY230     -0.2863
    129  N         51.3620   41.6690   60.2250 N.3   232  ALA232     -0.1231
    130  CA        51.0910   40.9570   61.4690 C.3   232  ALA232      0.1694
    131  C         50.7200   39.4990   61.1650 C.2   232  ALA232      0.2591
    132  O         51.2210   38.5800   61.8220 O.2   232  ALA232     -0.2718
    133  CB        49.9740   41.6350   62.2340 C.3   232  ALA232      0.0304
    134  N         49.8540   39.2860   60.1700 N.am  233  LEU233     -0.1980
    135  CA        49.4540   37.9330   59.7990 C.3   233  LEU233      0.1596
    136  C         50.6250   37.1700   59.1560 C.2   233  LEU233      0.2287
    137  O         50.7390   35.9480   59.2890 O.2   233  LEU233     -0.2864
    138  CB        48.2590   37.9760   58.8370 C.3   233  LEU233      0.0297
    139  CG        46.9240   38.4510   59.4390 C.3   233  LEU233      0.0022
    140  CD1       45.8500   38.5270   58.3510 C.3   233  LEU233      0.0001
    141  CD2       46.4980   37.5050   60.5560 C.3   233  LEU233      0.0001
    142  N         34.9180   52.2300   53.5170 N.3   320  THR320     -0.1218
    143  CA        34.4910   51.9630   54.8850 C.3   320  THR320      0.1862
    144  C         34.6580   53.1970   55.7480 C.2   320  THR320      0.2287
    145  O         35.4460   54.0850   55.4250 O.2   320  THR320     -0.2866
    146  CB        35.3400   50.8610   55.5160 C.3   320  THR320      0.1770
    147  OG1       36.6700   51.3630   55.7350 O.3   320  THR320     -0.2211
    148  CG2       35.3870   49.6340   54.6030 C.3   320  THR320      0.0375
    149  N         38.2020   53.5600   56.5580 N.3   323  ILE323     -0.1245
    150  CA        39.0320   54.0270   55.4560 C.3   323  ILE323      0.1561
    151  C         38.8200   55.5270   55.2380 C.2   323  ILE323      0.2260
    152  O         39.7560   56.2430   54.8810 O.2   323  ILE323     -0.2867
    153  CB        38.7190   53.2220   54.1580 C.3   323  ILE323      0.0252
    154  CG1       39.4130   51.8560   54.2410 C.3   323  ILE323      0.0019
    155  CG2       39.1670   53.9940   52.9160 C.3   323  ILE323      0.0019
    156  CD1       39.0100   50.8780   53.1780 C.3   323  ILE323      0.0001
    157  N         45.6700   55.9100   51.4690 N.3   375  PHE375     -0.1241
    158  CA        44.6130   55.3370   50.6490 C.3   375  PHE375      0.1605
    159  C         43.4220   56.2760   50.4330 C.2   375  PHE375      0.2264
    160  O         42.6310   56.5270   51.3420 O.2   375  PHE375     -0.2867
    161  CB        44.1580   54.0200   51.2790 C.3   375  PHE375      0.0534
    162  CG        43.3710   53.1460   50.3530 C.ar  375  PHE375     -0.0203
    163  CD1       44.0080   52.4450   49.3320 C.ar  375  PHE375     -0.0042
    164  CD2       41.9900   53.0160   50.4990 C.ar  375  PHE375     -0.0042
    165  CE1       43.2760   51.6240   48.4700 C.ar  375  PHE375     -0.0003
    166  CE2       41.2580   52.1970   49.6390 C.ar  375  PHE375     -0.0003
    167  CZ        41.9050   51.5020   48.6240 C.ar  375  PHE375     -0.0000
@<TRIPOS>BOND
     1   109   108    1
     2   110   108    1
     3   165   167   ar
     4   165   163   ar
     5   167   166   ar
     6   108   105    1
     7    19    18    2
     8    18    17    1
     9   163   162   ar
    10   166   164   ar
    11    96    95    2
    12   105   104    1
    13   105   106    1
    14    13    14    1
    15    13    12    1
    16    16    17    1
    17    14    15    2
    18    17    20    1
    19   162   164   ar
    20   162   161    1
    21   159   158    1
    22   159   160    2
    23   158   161    1
    24   158   157    1
    25    95   104   am
    26    95    94    1
    27    93    94    1
    28     4     3    2
    29   106   107    2
    30   106   111    1
    31    12     3   am
    32    21    20    1
    33   111   112    2
    34    94    97    1
    35     3     2    1
    36     1     2    1
    37   114   113    2
    38   112   113    1
    39     2     5    1
    40    97    98    1
    41   155   153    1
    42   113   115   am
    43   156   154    1
    44    99    98   ar
    45    99   101   ar
    46    35    36    1
    47    35    32    1
    48    38    36   ar
    49    38    40   ar
    50   142   143    1
    51    98   100   ar
    52     5     6    1
    53    36    37   ar
    54   101   103   ar
    55    40    39   ar
    56    31    32    1
    57   153   154    1
    58   153   150    1
    59   115   116    1
    60    22    23    1
    61    37    39   ar
    62    32    33    1
    63   148   146    1
    64    34    33    2
    65   100   102   ar
    66    25    24    2
    67   116   117    1
    68   116   119    1
    69   152   151    2
    70   143   146    1
    71   143   144    1
    72     6     7   ar
    73     6     8   ar
    74     7     9   ar
    75   103   102   ar
    76    24    23    1
    77    33    41   am
    78   151   150    1
    79   117   118    2
    80   145   144    2
    81   150   149    1
    82   146   147    1
    83    23    26    1
    84   119   120    1
    85     8    10   ar
    86     9    11   ar
    87    43    44    2
    88    43    42    1
    89    41    42    1
    90    26    27    1
    91   126   127    1
    92   126   125    1
    93    42    45    1
    94   128   127    2
    95    10    11   ar
    96   125   123   am
    97    29    30    1
    98    29    28    1
    99    27    28    1
   100   140   139    1
   101    45    46    1
   102    45    47    1
   103   123   124    2
   104   123   122    1
   105   138   139    1
   106   138   135    1
   107   136   137    2
   108   136   135    1
   109   121   122    1
   110   139   141    1
   111   135   134    1
   112    48    49    1
   113   134   131   am
   114   129   130    1
   115    51    50    2
   116    83    82    2
   117    81    82    1
   118    81    80    1
   119    79    77    1
   120   131   130    1
   121   131   132    2
   122    49    50    1
   123    82    84   am
   124   130   133    1
   125    50    52   am
   126    77    76    2
   127    77    78    1
   128    76    75    1
   129    52    53    1
   130    75    74    1
   131    53    56    1
   132    53    54    1
   133    84    85    1
   134    56    57    1
   135    87    86    2
   136    85    86    1
   137    85    88    1
   138    54    60   am
   139    54    55    2
   140    57    59   am
   141    57    58    2
   142    74    73    1
   143    72    71    2
   144    60    61    1
   145    63    62    2
   146    70    73    1
   147    70    71    1
   148    70    69    1
   149    89    88    1
   150    89    90    1
   151    62    69   am
   152    62    61    1
   153    61    64    1
   154    92    90   am
   155    90    91    2
   156    64    65    1
   157    65    66    1
   158    66    68   am
   159    66    67    2
