@<TRIPOS>MOLECULE
tmp/1eyzA00.pdb
 208 195 0 0 0
SMALL
GASTEIGER

@<TRIPOS>ATOM
      1  N         28.5260   39.4980   31.8840 N.3    83  GLU83      -0.1245
      2  CA        29.3940   39.8870   32.9680 C.3    83  GLU83       0.1567
      3  C         28.7540   39.6690   34.3530 C.2    83  GLU83       0.2260
      4  O         29.4300   39.3000   35.3130 O.2    83  GLU83      -0.2867
      5  CB        29.8790   41.3340   32.7490 C.3    83  GLU83       0.0388
      6  CG        31.2180   41.3690   31.9890 C.3    83  GLU83       0.1160
      7  CD        31.4230   42.5550   31.0730 C.2    83  GLU83       0.3649
      8  OE1       31.9870   42.4940   30.0060 O.co2  83  GLU83      -0.2457
      9  OE2       30.9650   43.6720   31.5360 O.co2  83  GLU83      -0.2457
     10  N         35.3060   46.6640   36.0080 N.3   113  ARG113     -0.1245
     11  CA        36.3560   47.3650   35.3070 C.3   113  ARG113      0.1563
     12  C         37.6260   47.4600   36.0640 C.2   113  ARG113      0.2260
     13  O         38.6820   47.5850   35.4450 O.2   113  ARG113     -0.2867
     14  CB        35.9750   48.7760   34.8470 C.3   113  ARG113      0.0307
     15  CG        34.8050   48.8330   33.8490 C.3   113  ARG113      0.0489
     16  CD        34.3200   50.2500   33.5060 C.3   113  ARG113      0.2205
     17  NE        32.9460   50.2250   33.0080 N.pl3 113  ARG113     -0.0865
     18  CZ        32.6590   49.8730   31.7570 C.cat 113  ARG113      0.5346
     19  NH1       33.6190   49.5730   30.9010 N.pl3 113  ARG113      0.1354
     20  NH2       31.3990   49.8020   31.3650 N.pl3 113  ARG113      0.1354
     21  N         43.7550   54.3710   28.3010 N.3   129  SER129     -0.1217
     22  CA        43.4550   55.7630   28.6140 C.3   129  SER129      0.1889
     23  C         43.8970   56.0400   30.0620 C.2   129  SER129      0.2288
     24  O         44.1840   55.1270   30.8520 O.2   129  SER129     -0.2866
     25  CB        41.9550   56.0010   28.6410 C.3   129  SER129      0.2089
     26  OG        41.3490   55.2330   29.6440 O.3   129  SER129     -0.2183
     27  N         35.1880   60.5690   30.6300 N.3   152  ILE152     -0.1245
     28  CA        33.9590   59.8110   30.6060 C.3   152  ILE152      0.1561
     29  C         33.8720   59.0530   31.9090 C.2   152  ILE152      0.2260
     30  O         34.8560   58.4460   32.3110 O.2   152  ILE152     -0.2867
     31  CB        33.9750   58.7610   29.4630 C.3   152  ILE152      0.0252
     32  CG1       34.0410   59.4190   28.0680 C.3   152  ILE152      0.0019
     33  CG2       32.8080   57.7550   29.5820 C.3   152  ILE152      0.0019
     34  CD1       34.7510   58.5490   27.0300 C.3   152  ILE152      0.0001
     35  N         32.0840   55.9420   34.1150 N.3   154  LYS154     -0.1245
     36  CA        31.3170   54.7220   33.9870 C.3   154  LYS154      0.1561
     37  C         31.3210   53.9240   35.2900 C.2   154  LYS154      0.2260
     38  O         32.3260   53.8390   36.0140 O.2   154  LYS154     -0.2867
     39  CB        31.7520   53.7970   32.8420 C.3   154  LYS154      0.0271
     40  CG        32.6930   54.4190   31.8140 C.3   154  LYS154      0.0035
     41  CD        33.3940   53.4050   30.9140 C.3   154  LYS154      0.0206
     42  CE        34.1380   54.1160   29.7880 C.3   154  LYS154      0.1093
     43  NZ        35.1420   53.2780   29.0670 N.3   154  LYS154     -0.1314
     44  N         29.2490   47.6030   34.6990 N.3   158  SER158     -0.1202
     45  CA        28.2650   47.9820   33.7060 C.3   158  SER158      0.2020
     46  C         28.6740   47.5460   32.3180 C.2   158  SER158      0.2619
     47  O         29.8130   47.2220   32.0140 O.2   158  SER158     -0.2717
     48  CB        28.0420   49.4890   33.6460 C.3   158  SER158      0.2103
     49  OG        29.1870   50.0560   33.0320 O.3   158  SER158     -0.2182
     50  N         27.6980   47.5950   31.4530 N.am  159  SER159     -0.1937
     51  CA        27.8800   47.2270   30.0840 C.3   159  SER159      0.2055
     52  C         26.8790   47.9780   29.2200 C.2   159  SER159      0.2644
     53  O         25.9050   48.5750   29.6920 O.2   159  SER159     -0.2714
     54  CB        27.6940   45.7320   29.8930 C.3   159  SER159      0.2130
     55  OG        26.4130   45.4910   29.3490 O.3   159  SER159     -0.2179
     56  N         27.1390   47.9210   27.9280 N.am  160  SER160     -0.1935
     57  CA        26.2980   48.5460   26.9420 C.3   160  SER160      0.2055
     58  C         26.0130   50.0180   27.1890 C.2   160  SER160      0.2643
     59  O         24.9420   50.5290   26.8220 O.2   160  SER160     -0.2714
     60  CB        25.0390   47.7410   26.6590 C.3   160  SER160      0.2130
     61  OG        25.3940   46.4070   26.3570 O.3   160  SER160     -0.2179
     62  N         26.9840   50.7080   27.7930 N.am  161  GLY161     -0.1954
     63  CA        26.8830   52.1430   28.0570 C.3   161  GLY161      0.1869
     64  C         25.9750   52.5850   29.2120 C.2   161  GLY161      0.2309
     65  O         25.7940   53.7830   29.4380 O.2   161  GLY161     -0.2863
     66  N         26.7330   55.7710   31.8000 N.3   164  GLN164     -0.1245
     67  CA        27.9080   56.4620   31.2860 C.3   164  GLN164      0.1566
     68  C         27.6460   57.8710   30.7710 C.2   164  GLN164      0.2260
     69  O         26.6820   58.1230   30.0640 O.2   164  GLN164     -0.2867
     70  CB        28.4400   55.5760   30.1590 C.3   164  GLN164      0.0367
     71  CG        29.9380   55.3460   30.1270 C.3   164  GLN164      0.0905
     72  CD        30.2590   54.4700   28.9410 C.2   164  GLN164      0.2608
     73  OE1       30.6060   54.9670   27.8430 O.2   164  GLN164     -0.2717
     74  NE2       30.1370   53.1670   29.1760 N.am  164  GLN164     -0.0878
     75  N         29.5580   61.3730   28.9940 N.3   166  PHE166     -0.1241
     76  CA        30.6910   61.9790   28.3730 C.3   166  PHE166      0.1605
     77  C         30.7480   63.3710   28.9820 C.2   166  PHE166      0.2264
     78  O         29.8910   64.2010   28.6540 O.2   166  PHE166     -0.2867
     79  CB        30.4240   62.0370   26.8780 C.3   166  PHE166      0.0534
     80  CG        31.6420   62.4690   26.1310 C.ar  166  PHE166     -0.0203
     81  CD1       31.9270   63.8240   25.9750 C.ar  166  PHE166     -0.0042
     82  CD2       32.5290   61.5310   25.6100 C.ar  166  PHE166     -0.0042
     83  CE1       33.0590   64.2640   25.2890 C.ar  166  PHE166     -0.0003
     84  CE2       33.6700   61.9520   24.9280 C.ar  166  PHE166     -0.0003
     85  CZ        33.9400   63.3150   24.7730 C.ar  166  PHE166     -0.0000
     86  N         37.5620   58.0180   33.0720 N.3   192  GLU192     -0.1231
     87  CA        38.6270   57.8650   32.0900 C.3   192  GLU192      0.1699
     88  C         38.8650   59.1160   31.2460 C.2   192  GLU192      0.2593
     89  O         37.9320   59.7950   30.8080 O.2   192  GLU192     -0.2718
     90  CB        38.3120   56.7070   31.0760 C.3   192  GLU192      0.0402
     91  CG        38.2740   55.2740   31.6470 C.3   192  GLU192      0.1161
     92  CD        37.7800   54.2820   30.6050 C.2   192  GLU192      0.3649
     93  OE1       37.9690   54.4160   29.4100 O.co2 192  GLU192     -0.2457
     94  OE2       37.1300   53.2650   31.1040 O.co2 192  GLU192     -0.2457
     95  N         40.1180   59.3750   30.9740 N.am  193  GLY193     -0.1942
     96  CA        40.4170   60.4750   30.0890 C.3   193  GLY193      0.2014
     97  C         39.9720   60.0350   28.6800 C.2   193  GLY193      0.2639
     98  O         40.0060   58.8330   28.3840 O.2   193  GLY193     -0.2714
     99  N         39.5620   61.0040   27.8310 N.am  194  VAL194     -0.1963
    100  CA        39.0940   60.7720   26.4600 C.3   194  VAL194      0.1727
    101  C         40.2220   60.4760   25.4800 C.2   194  VAL194      0.2616
    102  O         41.1530   61.2490   25.2800 O.2   194  VAL194     -0.2715
    103  CB        38.1740   61.8760   25.9340 C.3   194  VAL194      0.0290
    104  CG1       37.8150   61.6220   24.4730 C.3   194  VAL194      0.0023
    105  CG2       36.8700   61.9050   26.7100 C.3   194  VAL194      0.0023
    106  N         40.1700   59.3200   24.8570 N.am  195  VAL195     -0.1977
    107  CA        41.2010   58.9880   23.9000 C.3   195  VAL195      0.1596
    108  C         40.6930   59.4920   22.5420 C.2   195  VAL195      0.2287
    109  O         39.5420   59.2460   22.1540 O.2   195  VAL195     -0.2864
    110  CB        41.4340   57.4690   23.8310 C.3   195  VAL195      0.0276
    111  CG1       42.4270   57.1050   22.7350 C.3   195  VAL195      0.0022
    112  CG2       41.8900   56.8790   25.1590 C.3   195  VAL195      0.0022
    113  N         40.8150   58.7270   19.1000 N.3   197  PHE197     -0.1241
    114  CA        41.3130   57.7800   18.1510 C.3   197  PHE197      0.1605
    115  C         40.8620   58.0820   16.7460 C.2   197  PHE197      0.2264
    116  O         39.8670   58.7890   16.5100 O.2   197  PHE197     -0.2867
    117  CB        40.8150   56.3910   18.5660 C.3   197  PHE197      0.0534
    118  CG        39.3400   56.3700   18.8660 C.ar  197  PHE197     -0.0203
    119  CD1       38.8550   56.5970   20.1570 C.ar  197  PHE197     -0.0042
    120  CD2       38.3940   56.0820   17.8840 C.ar  197  PHE197     -0.0042
    121  CE1       37.4930   56.5340   20.4590 C.ar  197  PHE197     -0.0003
    122  CE2       37.0240   56.0410   18.1550 C.ar  197  PHE197     -0.0003
    123  CZ        36.5610   56.2690   19.4550 C.ar  197  PHE197     -0.0000
    124  N         37.9660   52.8830   16.1230 N.3   200  GLU200     -0.1245
    125  CA        38.0330   51.7760   17.0830 C.3   200  GLU200      0.1567
    126  C         37.8150   50.4010   16.4250 C.2   200  GLU200      0.2260
    127  O         37.1800   50.2640   15.3630 O.2   200  GLU200     -0.2867
    128  CB        37.2640   51.9740   18.4020 C.3   200  GLU200      0.0388
    129  CG        35.7330   52.0330   18.3280 C.3   200  GLU200      0.1160
    130  CD        35.0940   52.2330   19.6990 C.2   200  GLU200      0.3649
    131  OE1       35.4200   51.6240   20.6840 O.co2 200  GLU200     -0.2457
    132  OE2       34.0990   53.0760   19.6830 O.co2 200  GLU200     -0.2457
    133  N         33.8080   49.3210   14.1920 N.3   220  HIS220     -0.1241
    134  CA        32.4330   49.5160   14.6210 C.3   220  HIS220      0.1621
    135  C         32.1070   50.9700   14.8890 C.2   220  HIS220      0.2264
    136  O         32.9920   51.8050   15.1480 O.2   220  HIS220     -0.2867
    137  CB        32.0400   48.6580   15.8470 C.3   220  HIS220      0.0745
    138  CG        33.0870   48.6670   16.9480 C.ar  220  HIS220      0.0817
    139  ND1       32.9410   49.4480   18.0920 N.ar  220  HIS220     -0.2268
    140  CD2       34.2760   47.9950   17.0630 C.ar  220  HIS220      0.1154
    141  CE1       34.0130   49.2310   18.8570 C.ar  220  HIS220      0.1986
    142  NE2       34.8370   48.3530   18.2720 N.ar  220  HIS220     -0.2212
    143  N         29.4320   53.2200   17.2040 N.3   222  GLN222     -0.1245
    144  CA        28.6640   53.3240   18.4360 C.3   222  GLN222      0.1566
    145  C         27.6680   54.4680   18.4000 C.2   222  GLN222      0.2260
    146  O         27.8510   55.5200   17.7920 O.2   222  GLN222     -0.2867
    147  CB        29.6040   53.4210   19.6700 C.3   222  GLN222      0.0367
    148  CG        30.6760   52.3060   19.7260 C.3   222  GLN222      0.0905
    149  CD        30.1200   51.0460   20.3550 C.2   222  GLN222      0.2608
    150  OE1       30.4280   49.9130   19.9560 O.2   222  GLN222     -0.2717
    151  NE2       29.2640   51.2390   21.3550 N.am  222  GLN222     -0.0878
    152  N         25.7160   54.1240   23.6440 N.3   225  GLY225     -0.1225
    153  CA        25.9010   52.8680   24.3770 C.3   225  GLY225      0.1811
    154  C         25.7760   51.5770   23.5840 C.2   225  GLY225      0.2280
    155  O         25.9930   50.4980   24.1160 O.2   225  GLY225     -0.2866
    156  N         38.7720   45.0060   22.6530 N.3   264  GLU264     -0.1245
    157  CA        38.4190   46.3650   22.2240 C.3   264  GLU264      0.1567
    158  C         39.6560   47.2600   22.2390 C.2   264  GLU264      0.2260
    159  O         40.2840   47.3800   23.2830 O.2   264  GLU264     -0.2867
    160  CB        37.2810   46.9840   23.0900 C.3   264  GLU264      0.0388
    161  CG        35.9660   46.1750   23.0460 C.3   264  GLU264      0.1160
    162  CD        34.7510   46.8320   23.6780 C.2   264  GLU264      0.3649
    163  OE1       33.6730   46.2740   23.7900 O.co2 264  GLU264     -0.2457
    164  OE2       34.9370   48.0400   24.1380 O.co2 264  GLU264     -0.2457
    165  N         41.6680   51.0630   20.4670 N.3   266  PHE266     -0.1241
    166  CA        41.5080   52.3640   19.8620 C.3   266  PHE266      0.1605
    167  C         42.7490   52.5310   19.0470 C.2   266  PHE266      0.2264
    168  O         43.8240   52.2250   19.5430 O.2   266  PHE266     -0.2867
    169  CB        41.4850   53.4880   20.9030 C.3   266  PHE266      0.0534
    170  CG        40.2830   53.4890   21.8250 C.ar  266  PHE266     -0.0203
    171  CD1       38.9710   53.2840   21.3840 C.ar  266  PHE266     -0.0042
    172  CD2       40.4750   53.7820   23.1760 C.ar  266  PHE266     -0.0042
    173  CE1       37.8610   53.3030   22.2370 C.ar  266  PHE266     -0.0003
    174  CE2       39.3820   53.8310   24.0360 C.ar  266  PHE266     -0.0003
    175  CZ        38.0830   53.5840   23.5840 C.ar  266  PHE266     -0.0000
    176  N         41.2840   49.1080   25.4530 N.3   275  SER275     -0.1202
    177  CA        40.1020   49.6700   26.0760 C.3   275  SER275      0.2020
    178  C         39.5490   48.6840   27.1000 C.2   275  SER275      0.2621
    179  O         39.6050   48.9230   28.2910 O.2   275  SER275     -0.2717
    180  CB        39.0210   50.1210   25.0960 C.3   275  SER275      0.2103
    181  OG        37.8070   50.5890   25.7130 O.3   275  SER275     -0.2182
    182  N         39.0310   47.5650   26.6300 N.am  276  GLU276     -0.1933
    183  CA        38.4630   46.5150   27.4510 C.3   276  GLU276      0.1818
    184  C         38.4410   45.2090   26.6570 C.2   276  GLU276      0.2332
    185  O         38.9320   45.1910   25.5350 O.2   276  GLU276     -0.2860
    186  CB        37.0600   46.8390   28.0190 C.2   276  GLU276      0.0097
    187  CG        35.9580   47.0740   26.9510 C.2   276  GLU276      0.0837
    188  CD        34.5370   47.0650   27.4450 C.2   276  GLU276      0.3877
    189  OE1       33.5890   47.0560   26.7020 O.co2 276  GLU276     -0.2406
    190  OE2       34.3940   47.0820   28.7560 O.co2 276  GLU276     -0.2406
    191  N         31.9320   38.6440   21.0120 N.3   282  HIS282     -0.1226
    192  CA        31.5960   40.0710   21.0660 C.3   282  HIS282      0.1752
    193  C         30.4110   40.4720   20.1610 C.2   282  HIS282      0.2596
    194  O         30.2560   39.9460   19.0440 O.2   282  HIS282     -0.2718
    195  CB        32.9150   40.8050   20.7470 C.3   282  HIS282      0.0759
    196  CG        32.9400   42.2470   21.1090 C.ar  282  HIS282      0.0818
    197  ND1       32.4480   43.2220   20.2540 N.ar  282  HIS282     -0.2268
    198  CD2       33.4160   42.8560   22.2330 C.ar  282  HIS282      0.1154
    199  CE1       32.6170   44.3890   20.8800 C.ar  282  HIS282      0.1986
    200  NE2       33.2050   44.1970   22.0760 N.ar  282  HIS282     -0.2212
    201  N         29.5390   41.3740   20.6050 N.am  283  ASP283     -0.1974
    202  CA        28.3910   41.7100   19.7670 C.3   283  ASP283      0.1709
    203  C         28.7940   42.2090   18.3790 C.2   283  ASP283      0.2293
    204  O         28.1910   41.8540   17.3510 O.2   283  ASP283     -0.2864
    205  CB        27.3840   42.6940   20.4210 C.3   283  ASP283      0.1436
    206  CG        28.0280   43.9490   20.9760 C.2   283  ASP283      0.3671
    207  OD1       29.2120   44.2530   20.8810 O.co2 283  ASP283     -0.2456
    208  OD2       27.1530   44.6640   21.5920 O.co2 283  ASP283     -0.2456
@<TRIPOS>BOND
     1   133   134    1
     2   134   135    1
     3   134   137    1
     4   135   136    2
     5   127   126    2
     6   137   138    1
     7   124   125    1
     8   126   125    1
     9   116   115    2
    10   115   114    1
    11   138   140   ar
    12   138   139   ar
    13   140   142   ar
    14   125   128    1
    15   143   144    1
    16   204   203    2
    17   146   145    2
    18   120   122   ar
    19   120   118   ar
    20   139   141   ar
    21   114   117    1
    22   114   113    1
    23   122   123   ar
    24   142   141   ar
    25   129   128    1
    26   129   130    1
    27   203   202    1
    28   145   144    1
    29   144   147    1
    30   117   118    1
    31   118   119   ar
    32   194   193    2
    33   167   168    2
    34   167   166    1
    35   123   121   ar
    36   147   148    1
    37   132   130   ar
    38   130   131   ar
    39   148   149    1
    40   202   205    1
    41   202   201    1
    42   166   165    1
    43   166   169    1
    44   150   149    2
    45   119   121   ar
    46   193   201   am
    47   193   192    1
    48   197   199   ar
    49   197   196   ar
    50   149   151   am
    51   205   206    1
    52   195   192    1
    53   195   196    1
    54   199   200   ar
    55   207   206   ar
    56   169   170    1
    57   206   208   ar
    58   191   192    1
    59   196   198   ar
    60   171   170   ar
    61   171   173   ar
    62   170   172   ar
    63   200   198   ar
    64   109   108    2
    65   157   158    1
    66   157   156    1
    67   157   160    1
    68   173   175   ar
    69   158   159    2
    70   108   107    1
    71   111   110    1
    72   161   160    1
    73   161   162    1
    74   172   174   ar
    75   154   155    2
    76   154   153    1
    77   175   174   ar
    78   152   153    1
    79   162   163   ar
    80   162   164   ar
    81   110   107    1
    82   110   112    1
    83   107   106    1
    84   104   103    1
    85    85    84   ar
    86    85    83   ar
    87   106   101   am
    88    84    82   ar
    89   180   181    1
    90   180   177    1
    91   102   101    2
    92    83    81   ar
    93   176   177    1
    94   101   100    1
    95   185   184    2
    96    82    80   ar
    97   103   100    1
    98   103   105    1
    99    81    80   ar
   100   177   178    1
   101    80    79    1
   102    61    60    1
   103   100    99    1
   104   182   178   am
   105   182   183    1
   106   184   183    1
   107    60    57    1
   108   189   188   ar
   109    59    58    2
   110    79    76    1
   111    57    58    1
   112    57    56    1
   113   187   188    1
   114   187   186    2
   115    34    32    1
   116   178   179    2
   117    58    62   am
   118   188   190   ar
   119   183   186    1
   120    62    63    1
   121    99    97   am
   122    73    72    2
   123    56    52   am
   124    63    64    1
   125    32    31    1
   126    21    22    1
   127    76    77    1
   128    76    75    1
   129    98    97    2
   130    22    25    1
   131    22    23    1
   132    25    26    1
   133    78    77    2
   134    97    96    1
   135    72    74   am
   136    72    71    1
   137    43    42    1
   138    64    65    2
   139    52    53    2
   140    52    51    1
   141    55    54    1
   142    93    92   ar
   143    31    33    1
   144    31    28    1
   145    42    41    1
   146    54    51    1
   147     8     7   ar
   148    23    24    2
   149    69    68    2
   150    51    50    1
   151    96    95    1
   152    71    70    1
   153    70    67    1
   154    92    94   ar
   155    92    91    1
   156    28    27    1
   157    28    29    1
   158    68    67    1
   159    89    88    2
   160    19    18    1
   161    41    40    1
   162    95    88   am
   163     7     9   ar
   164     7     6    1
   165    90    91    1
   166    90    87    1
   167    88    87    1
   168    67    66    1
   169    20    18    1
   170    50    46   am
   171    18    17    2
   172    40    39    1
   173     1     2    1
   174    29    30    2
   175     6     5    1
   176    47    46    2
   177    87    86    1
   178    46    45    1
   179     5     2    1
   180    39    36    1
   181     2     3    1
   182    17    16    1
   183    49    48    1
   184    16    15    1
   185    48    45    1
   186    45    44    1
   187    15    14    1
   188    36    35    1
   189    36    37    1
   190     3     4    2
   191    14    11    1
   192    37    38    2
   193    11    10    1
   194    11    12    1
   195    13    12    2
