@<TRIPOS>MOLECULE
tmp/1ez1A01.pdb
 134 127 0 0 0
SMALL
GASTEIGER

@<TRIPOS>ATOM
      1  N         22.0460   33.5870   27.6580 N.3    19  SER19      -0.1202
      2  CA        21.4450   33.0220   26.4700 C.3    19  SER19       0.2020
      3  C         21.0320   34.0960   25.4490 C.2    19  SER19       0.2619
      4  O         20.0020   33.9530   24.8220 O.2    19  SER19      -0.2717
      5  CB        20.2390   32.2210   26.9380 C.3    19  SER19       0.2103
      6  OG        20.6650   31.0930   27.7010 O.3    19  SER19      -0.2182
      7  N         21.8400   35.1430   25.3000 N.am   20  GLY20      -0.1942
      8  CA        21.5100   36.1800   24.3370 C.3    20  GLY20       0.2014
      9  C         21.9100   35.7020   22.9360 C.2    20  GLY20       0.2639
     10  O         22.1710   34.5270   22.7070 O.2    20  GLY20      -0.2714
     11  N         21.9640   36.6350   22.0060 N.am   21  GLU21      -0.1963
     12  CA        22.2740   36.3310   20.6100 C.3    21  GLU21       0.1733
     13  C         23.6330   35.7200   20.4270 C.2    21  GLU21       0.2616
     14  O         23.8280   34.9610   19.4480 O.2    21  GLU21      -0.2715
     15  CB        22.0990   37.6000   19.7270 C.3    21  GLU21       0.0429
     16  CG        23.0320   38.7490   20.2220 C.3    21  GLU21       0.1163
     17  CD        22.2880   39.6910   21.1480 C.2    21  GLU21       0.3649
     18  OE1       21.5760   39.3650   22.0830 O.co2  21  GLU21      -0.2457
     19  OE2       22.4520   40.9160   20.8130 O.co2  21  GLU21      -0.2457
     20  N         24.5890   36.1050   21.2760 N.am   22  LEU22      -0.1977
     21  CA        25.9210   35.5640   21.1750 C.3    22  LEU22       0.1596
     22  C         25.8930   34.0540   21.5170 C.2    22  LEU22       0.2287
     23  O         26.3810   33.2090   20.7690 O.2    22  LEU22      -0.2864
     24  CB        26.9520   36.3590   21.9880 C.3    22  LEU22       0.0297
     25  CG        26.8200   37.8600   21.7310 C.3    22  LEU22       0.0022
     26  CD1       27.8810   38.6160   22.5090 C.3    22  LEU22       0.0001
     27  CD2       27.0760   38.1140   20.2670 C.3    22  LEU22       0.0001
     28  N         19.5500   31.5840   31.7920 N.3    41  ASP41      -0.1239
     29  CA        19.5130   33.0350   31.7650 C.3    41  ASP41       0.1674
     30  C         18.6180   33.4790   32.8970 C.2    41  ASP41       0.2266
     31  O         18.1230   32.6050   33.6290 O.2    41  ASP41      -0.2867
     32  CB        19.0840   33.6980   30.3990 C.3    41  ASP41       0.1410
     33  CG        19.7890   35.0050   30.0310 C.2    41  ASP41       0.3668
     34  OD1       20.2450   35.2400   28.9150 O.co2  41  ASP41      -0.2456
     35  OD2       19.9230   35.8380   31.0310 O.co2  41  ASP41      -0.2456
     36  N         15.8770   35.3030   32.2960 N.3    43  TYR43      -0.1241
     37  CA        14.5450   35.3490   31.7300 C.3    43  TYR43       0.1605
     38  C         14.3180   34.1860   30.7470 C.2    43  TYR43       0.2264
     39  O         15.2780   33.6880   30.1850 O.2    43  TYR43      -0.2867
     40  CB        14.1450   36.7250   31.1260 C.3    43  TYR43       0.0534
     41  CG        14.7980   36.8830   29.7600 C.ar   43  TYR43      -0.0201
     42  CD1       14.0970   36.5240   28.6080 C.ar   43  TYR43      -0.0009
     43  CD2       16.0900   37.3880   29.6590 C.ar   43  TYR43      -0.0009
     44  CE1       14.7050   36.6370   27.3570 C.ar   43  TYR43       0.0417
     45  CE2       16.7160   37.4930   28.4200 C.ar   43  TYR43       0.0417
     46  CZ        16.0070   37.1190   27.2770 C.ar   43  TYR43       0.1957
     47  OH        16.6380   37.2820   26.0540 O.3    43  TYR43      -0.2866
     48  N         28.3570   33.7350   29.0250 N.3    81  GLU81      -0.1231
     49  CA        28.0800   34.5090   27.8250 C.3    81  GLU81       0.1699
     50  C         27.8680   35.9970   28.1170 C.2    81  GLU81       0.2592
     51  O         27.8470   36.8070   27.2080 O.2    81  GLU81      -0.2718
     52  CB        26.7990   33.9110   27.2440 C.3    81  GLU81       0.0402
     53  CG        26.5180   34.3480   25.7830 C.3    81  GLU81       0.1161
     54  CD        25.3150   35.2290   25.7250 C.2    81  GLU81       0.3649
     55  OE1       24.7410   35.5140   24.6990 O.co2  81  GLU81      -0.2457
     56  OE2       24.9170   35.6450   26.9050 O.co2  81  GLU81      -0.2457
     57  N         27.6720   36.3330   29.3900 N.am   82  ILE82      -0.1980
     58  CA        27.4870   37.7010   29.8780 C.3    82  ILE82       0.1595
     59  C         28.4120   37.9330   31.0410 C.2    82  ILE82       0.2287
     60  O         29.0240   36.9820   31.5540 O.2    82  ILE82      -0.2864
     61  CB        26.0990   38.0510   30.2550 C.3    82  ILE82       0.0276
     62  CG1       25.7180   37.1490   31.4030 C.3    82  ILE82       0.0022
     63  CG2       25.1830   37.8300   29.0440 C.3    82  ILE82       0.0022
     64  CD1       24.2860   37.4160   31.8250 C.3    82  ILE82       0.0001
     65  N         27.8750   46.9110   31.1510 N.3   159  SER159     -0.1202
     66  CA        28.0940   46.5300   29.7910 C.3   159  SER159      0.2020
     67  C         27.1540   47.2230   28.8340 C.2   159  SER159      0.2619
     68  O         26.0890   47.7180   29.1720 O.2   159  SER159     -0.2717
     69  CB        28.2490   45.0380   29.5660 C.3   159  SER159      0.2103
     70  OG        29.5640   44.8220   29.1060 O.3   159  SER159     -0.2182
     71  N         27.6140   47.2740   27.6070 N.am  160  SER160     -0.1951
     72  CA        26.8410   47.9150   26.5970 C.3   160  SER160      0.1924
     73  C         26.5510   49.3640   26.9540 C.2   160  SER160      0.2314
     74  O         25.5300   49.9340   26.5770 O.2   160  SER160     -0.2863
     75  CB        25.6130   47.1140   26.2200 C.3   160  SER160      0.2116
     76  OG        25.9480   46.2220   25.1780 O.3   160  SER160     -0.2180
     77  N         25.8250   50.8720   29.8560 N.3   162  LYS162     -0.1245
     78  CA        24.8660   51.3230   30.8720 C.3   162  LYS162      0.1561
     79  C         25.5520   52.1260   31.9840 C.2   162  LYS162      0.2260
     80  O         26.6180   51.7010   32.4440 O.2   162  LYS162     -0.2867
     81  CB        24.1600   50.1460   31.5090 C.3   162  LYS162      0.0271
     82  CG        23.4420   49.3190   30.4550 C.3   162  LYS162      0.0035
     83  CD        22.7180   48.1160   31.0350 C.3   162  LYS162      0.0206
     84  CE        23.3440   46.7910   30.6370 C.3   162  LYS162      0.1093
     85  NZ        24.2540   46.2030   31.6850 N.3   162  LYS162     -0.1314
     86  N         32.3380   38.3850   21.0610 N.3   282  HIS282     -0.1226
     87  CA        32.0270   39.7980   21.1520 C.3   282  HIS282      0.1752
     88  C         30.9250   40.2240   20.1840 C.2   282  HIS282      0.2596
     89  O         30.8290   39.7040   19.0750 O.2   282  HIS282     -0.2718
     90  CB        33.3700   40.4700   20.8070 C.3   282  HIS282      0.0759
     91  CG        33.4530   41.9190   21.1480 C.ar  282  HIS282      0.0818
     92  ND1       33.0480   42.9190   20.2660 N.ar  282  HIS282     -0.2268
     93  CD2       33.8690   42.5190   22.2950 C.ar  282  HIS282      0.1154
     94  CE1       33.2060   44.0880   20.8810 C.ar  282  HIS282      0.1986
     95  NE2       33.7120   43.8740   22.1010 N.ar  282  HIS282     -0.2212
     96  N         30.0730   41.1700   20.5750 N.am  283  ASP283     -0.1974
     97  CA        28.9850   41.5650   19.6910 C.3   283  ASP283      0.1709
     98  C         29.4490   42.0050   18.2780 C.2   283  ASP283      0.2293
     99  O         28.8330   41.6490   17.2650 O.2   283  ASP283     -0.2864
    100  CB        28.0140   42.6020   20.3420 C.3   283  ASP283      0.1436
    101  CG        28.7260   43.8430   20.8800 C.2   283  ASP283      0.3671
    102  OD1       29.9100   44.1000   20.7340 O.co2 283  ASP283     -0.2456
    103  OD2       27.9210   44.6530   21.5310 O.co2 283  ASP283     -0.2456
    104  N         14.1250   37.2660   20.6430 N.3   352  LYS352     -0.1245
    105  CA        13.9220   37.9140   21.9590 C.3   352  LYS352      0.1561
    106  C         12.4260   38.1090   22.1820 C.2   352  LYS352      0.2260
    107  O         11.7340   38.6250   21.3050 O.2   352  LYS352     -0.2867
    108  CB        14.7640   39.1780   22.1120 C.3   352  LYS352      0.0271
    109  CG        16.2480   38.9230   22.2400 C.3   352  LYS352      0.0035
    110  CD        17.0560   40.1890   22.4080 C.3   352  LYS352      0.0206
    111  CE        18.5350   39.9050   22.4290 C.3   352  LYS352      0.1093
    112  NZ        19.4120   41.0920   22.5030 N.3   352  LYS352     -0.1314
    113  N         16.3080   47.8350   22.0820 N.3   359  ARG359     -0.1231
    114  CA        16.8610   46.5040   22.2870 C.3   359  ARG359      0.1694
    115  C         17.3800   45.9800   20.9550 C.2   359  ARG359      0.2591
    116  O         16.7290   46.2430   19.9450 O.2   359  ARG359     -0.2718
    117  CB        15.8180   45.5210   22.8430 C.3   359  ARG359      0.0321
    118  CG        16.4790   44.3020   23.5120 C.3   359  ARG359      0.0489
    119  CD        15.4400   43.4010   24.1600 C.3   359  ARG359      0.2205
    120  NE        16.0980   42.4080   25.0300 N.pl3 359  ARG359     -0.0865
    121  CZ        15.4560   41.4390   25.7390 C.cat 359  ARG359      0.5346
    122  NH1       14.1420   41.2790   25.7280 N.pl3 359  ARG359      0.1354
    123  NH2       16.1820   40.6180   26.5110 N.pl3 359  ARG359      0.1354
    124  N         18.5320   45.2830   20.9750 N.am  360  ARG360     -0.1980
    125  CA        19.0890   44.7370   19.7320 C.3   360  ARG360      0.1597
    126  C         18.3280   43.4430   19.4380 C.2   360  ARG360      0.2287
    127  O         18.5200   42.4380   20.1160 O.2   360  ARG360     -0.2864
    128  CB        20.5540   44.4870   19.9010 C.3   360  ARG360      0.0334
    129  CG        21.2940   44.3300   18.5940 C.3   360  ARG360      0.0492
    130  CD        22.6200   43.6380   18.8080 C.3   360  ARG360      0.2205
    131  NE        23.6290   44.3920   19.5340 N.pl3 360  ARG360     -0.0865
    132  CZ        24.5860   43.9280   20.3490 C.cat 360  ARG360      0.5346
    133  NH1       24.7120   42.6260   20.6610 N.pl3 360  ARG360      0.1354
    134  NH2       25.4510   44.8090   20.8630 N.pl3 360  ARG360      0.1354
@<TRIPOS>BOND
     1    99    98    2
     2    98    97    1
     3   129   130    1
     4   129   128    1
     5   130   131    1
     6    89    88    2
     7   126   125    1
     8   126   127    2
     9    14    13    2
    10   131   132    2
    11    97   100    1
    12    97    96    1
    13    15    16    1
    14    15    12    1
    15   125   128    1
    16   125   124    1
    17   116   115    2
    18    88    96   am
    19    88    87    1
    20    16    17    1
    21    92    94   ar
    22    92    91   ar
    23    27    25    1
    24   100   101    1
    25   132   133    1
    26   132   134    1
    27    13    12    1
    28    13    20   am
    29    12    11    1
    30   104   105    1
    31   102   101   ar
    32    23    22    2
    33    90    91    1
    34    90    87    1
    35    19    17   ar
    36   101   103   ar
    37    94    95   ar
    38   115   124   am
    39   115   114    1
    40    86    87    1
    41    17    18   ar
    42    91    93   ar
    43    21    20    1
    44    21    22    1
    45    21    24    1
    46   107   106    2
    47    25    24    1
    48    25    26    1
    49   105   108    1
    50   105   106    1
    51    11     9   am
    52   113   114    1
    53    95    93   ar
    54   108   109    1
    55   109   110    1
    56   114   117    1
    57   110   111    1
    58   111   112    1
    59    10     9    2
    60   117   118    1
    61     9     8    1
    62   118   119    1
    63   119   120    1
    64     8     7    1
    65    55    54   ar
    66     4     3    2
    67   120   121    2
    68    76    75    1
    69     7     3   am
    70     3     2    1
    71    54    53    1
    72    54    56   ar
    73   122   121    1
    74   121   123    1
    75    53    52    1
    76    47    46    1
    77    75    72    1
    78     2     5    1
    79     2     1    1
    80    74    73    2
    81    72    73    1
    82    72    71    1
    83     5     6    1
    84    51    50    2
    85    52    49    1
    86    46    44   ar
    87    46    45   ar
    88    44    42   ar
    89    71    67   am
    90    49    50    1
    91    49    48    1
    92    50    57   am
    93    45    43   ar
    94    42    41   ar
    95    67    68    2
    96    67    66    1
    97    34    33   ar
    98    63    61    1
    99    70    69    1
   100    57    58    1
   101    69    66    1
   102    43    41   ar
   103    41    40    1
   104    66    65    1
   105    77    78    1
   106    58    61    1
   107    58    59    1
   108    33    32    1
   109    33    35   ar
   110    39    38    2
   111    61    62    1
   112    32    29    1
   113    82    83    1
   114    82    81    1
   115    84    83    1
   116    84    85    1
   117    38    37    1
   118    78    81    1
   119    78    79    1
   120    59    60    2
   121    40    37    1
   122    62    64    1
   123    37    36    1
   124    29    28    1
   125    29    30    1
   126    79    80    2
   127    30    31    2
