@<TRIPOS>MOLECULE
tmp/1ezfB00.pdb
 227 216 0 0 0
SMALL
GASTEIGER

@<TRIPOS>ATOM
      1  N        -33.3890   67.6560   65.0510 N.3    17  THR17      -0.1203
      2  CA       -32.6590   68.6250   64.2660 C.3    17  THR17       0.1994
      3  C        -31.8110   67.9660   63.1880 C.2    17  THR17       0.2619
      4  O        -31.0380   68.6360   62.5140 O.2    17  THR17      -0.2717
      5  CB       -31.7490   69.4560   65.1760 C.3    17  THR17       0.1784
      6  OG1      -30.8280   68.5880   65.8420 O.3    17  THR17      -0.2211
      7  CG2      -32.5640   70.1770   66.2300 C.3    17  THR17       0.0376
      8  N        -31.9250   66.6520   63.0460 N.am   18  SER18      -0.1937
      9  CA       -31.1680   65.9390   62.0260 C.3    18  SER18       0.2055
     10  C        -32.0680   64.8900   61.3800 C.2    18  SER18       0.2643
     11  O        -32.4330   63.8850   62.0000 O.2    18  SER18      -0.2714
     12  CB       -29.9140   65.2850   62.6200 C.3    18  SER18       0.2130
     13  OG       -28.9990   64.9010   61.6010 O.3    18  SER18      -0.2179
     14  N        -32.3990   65.1320   60.1170 N.am   19  ARG19      -0.1963
     15  CA       -33.2610   64.2480   59.3490 C.3    19  ARG19       0.1729
     16  C        -32.7690   62.8120   59.2070 C.2    19  ARG19       0.2617
     17  O        -33.5620   61.8880   59.3360 O.2    19  ARG19      -0.2715
     18  CB       -33.5510   64.8470   57.9650 C.3    19  ARG19       0.0348
     19  CG       -34.2770   66.1750   58.0270 C.3    19  ARG19       0.0492
     20  CD       -34.7410   66.6460   56.6640 C.3    19  ARG19       0.2205
     21  NE       -35.4980   67.8930   56.7620 N.pl3  19  ARG19      -0.0865
     22  CZ       -35.1320   69.0440   56.1980 C.cat  19  ARG19       0.5346
     23  NH1      -34.0110   69.1220   55.4840 N.pl3  19  ARG19       0.1354
     24  NH2      -35.8880   70.1230   56.3560 N.pl3  19  ARG19       0.1354
     25  N        -31.4740   62.6110   58.9880 N.am   20  SER20      -0.1936
     26  CA       -30.9630   61.2540   58.8170 C.3    20  SER20       0.2055
     27  C        -29.5440   61.0420   59.3150 C.2    20  SER20       0.2643
     28  O        -29.1280   59.9100   59.5790 O.2    20  SER20      -0.2714
     29  CB       -31.0390   60.8550   57.3420 C.3    20  SER20       0.2130
     30  OG       -30.3410   61.7870   56.5200 O.3    20  SER20      -0.2179
     31  N        -28.7920   62.1270   59.4460 N.am   21  PHE21      -0.1973
     32  CA       -27.4120   62.0260   59.8970 C.3    21  PHE21       0.1639
     33  C        -27.2620   61.6150   61.3740 C.2    21  PHE21       0.2290
     34  O        -26.1900   61.1810   61.8010 O.2    21  PHE21      -0.2864
     35  CB       -26.6740   63.3340   59.6050 C.3    21  PHE21       0.0560
     36  CG       -25.1920   63.1780   59.5410 C.ar   21  PHE21      -0.0200
     37  CD1      -24.6250   62.1740   58.7550 C.ar   21  PHE21      -0.0042
     38  CD2      -24.3620   64.0010   60.2910 C.ar   21  PHE21      -0.0042
     39  CE1      -23.2550   61.9890   58.7190 C.ar   21  PHE21      -0.0003
     40  CE2      -22.9900   63.8280   60.2620 C.ar   21  PHE21      -0.0003
     41  CZ       -22.4320   62.8160   59.4750 C.ar   21  PHE21      -0.0000
     42  N        -24.2600   59.5120   63.4530 N.3    25  ILE25      -0.1245
     43  CA       -23.6390   60.0370   64.6620 C.3    25  ILE25       0.1561
     44  C        -23.8320   58.9750   65.7450 C.2    25  ILE25       0.2260
     45  O        -22.8900   58.6160   66.4430 O.2    25  ILE25      -0.2867
     46  CB       -24.3230   61.3530   65.0950 C.3    25  ILE25       0.0252
     47  CG1      -23.9420   62.4740   64.1230 C.3    25  ILE25       0.0019
     48  CG2      -23.9830   61.7020   66.5500 C.3    25  ILE25       0.0019
     49  CD1      -24.7420   63.7580   64.3000 C.3    25  ILE25       0.0001
     50  N        -19.8180   64.0040   69.6790 N.3    36  VAL36      -0.1245
     51  CA       -20.3080   64.5090   68.3950 C.3    36  VAL36       0.1561
     52  C        -21.7990   64.8840   68.4710 C.2    36  VAL36       0.2260
     53  O        -22.2240   65.8780   67.8770 O.2    36  VAL36      -0.2867
     54  CB       -20.0070   63.5050   67.2570 C.3    36  VAL36       0.0252
     55  CG1      -20.7590   63.8790   65.9820 C.3    36  VAL36       0.0019
     56  CG2      -18.4950   63.4710   67.0000 C.3    36  VAL36       0.0019
     57  N        -21.6960   68.2430   70.1100 N.3    39  PHE39      -0.1227
     58  CA       -21.0870   69.1910   69.1780 C.3    39  PHE39       0.1736
     59  C        -22.1570   69.6220   68.1700 C.2    39  PHE39       0.2595
     60  O        -22.4090   70.8220   67.9810 O.2    39  PHE39      -0.2718
     61  CB       -19.9070   68.5170   68.4590 C.3    39  PHE39       0.0547
     62  CG       -19.0220   69.4690   67.6800 C.ar   39  PHE39      -0.0202
     63  CD1      -18.8890   70.8070   68.0560 C.ar   39  PHE39      -0.0042
     64  CD2      -18.3010   69.0110   66.5770 C.ar   39  PHE39      -0.0042
     65  CE1      -18.0440   71.6760   67.3390 C.ar   39  PHE39      -0.0003
     66  CE2      -17.4610   69.8600   65.8580 C.ar   39  PHE39      -0.0003
     67  CZ       -17.3290   71.1930   66.2340 C.ar   39  PHE39      -0.0000
     68  N        -22.8440   68.6360   67.5970 N.am   40  TYR40      -0.1976
     69  CA       -23.9000   68.8850   66.6180 C.3    40  TYR40       0.1639
     70  C        -24.9800   69.7910   67.1730 C.2    40  TYR40       0.2290
     71  O        -25.3660   70.7600   66.5320 O.2    40  TYR40      -0.2864
     72  CB       -24.5470   67.5710   66.1740 C.3    40  TYR40       0.0560
     73  CG       -25.5450   67.7450   65.0450 C.ar   40  TYR40      -0.0198
     74  CD1      -26.8890   68.0440   65.3000 C.ar   40  TYR40      -0.0009
     75  CD2      -25.1430   67.6170   63.7210 C.ar   40  TYR40      -0.0009
     76  CE1      -27.8000   68.2100   64.2540 C.ar   40  TYR40       0.0417
     77  CE2      -26.0420   67.7840   62.6740 C.ar   40  TYR40       0.0417
     78  CZ       -27.3600   68.0830   62.9420 C.ar   40  TYR40       0.1957
     79  OH       -28.2140   68.3030   61.8910 O.3    40  TYR40      -0.2866
     80  N        -23.7480   73.3470   67.6980 N.3    43  LEU43      -0.1245
     81  CA       -23.6130   74.0270   66.4020 C.3    43  LEU43       0.1561
     82  C        -25.0010   74.4080   65.9030 C.2    43  LEU43       0.2260
     83  O        -25.2130   75.4970   65.3760 O.2    43  LEU43      -0.2867
     84  CB       -22.9180   73.1060   65.3930 C.3    43  LEU43       0.0270
     85  CG       -21.4710   72.7520   65.7360 C.3    43  LEU43       0.0019
     86  CD1      -21.0050   71.5550   64.9150 C.3    43  LEU43       0.0001
     87  CD2      -20.5830   73.9640   65.5080 C.3    43  LEU43       0.0001
     88  N        -26.2510   78.1530   64.9120 N.3    47  ASP47      -0.1239
     89  CA       -26.7860   78.4470   63.5830 C.3    47  ASP47       0.1674
     90  C        -28.1750   79.0430   63.7160 C.2    47  ASP47       0.2266
     91  O        -28.5490   79.9500   62.9620 O.2    47  ASP47      -0.2867
     92  CB       -26.8910   77.1830   62.7290 C.3    47  ASP47       0.1410
     93  CG       -25.5710   76.4620   62.5770 C.2    47  ASP47       0.3668
     94  OD1      -24.5110   77.1230   62.5370 O.co2  47  ASP47      -0.2456
     95  OD2      -25.5960   75.2150   62.4870 O.co2  47  ASP47      -0.2456
     96  N        -18.7790   78.8730   59.0720 N.3   142  VAL142     -0.1231
     97  CA       -19.9500   78.0540   59.3050 C.3   142  VAL142      0.1692
     98  C        -19.7890   76.5570   59.0820 C.2   142  VAL142      0.2591
     99  O        -20.5490   75.7680   59.6420 O.2   142  VAL142     -0.2718
    100  CB       -21.1190   78.6050   58.4820 C.3   142  VAL142      0.0266
    101  CG1      -22.3680   77.7860   58.6950 C.3   142  VAL142      0.0020
    102  CG2      -21.3720   80.0490   58.8900 C.3   142  VAL142      0.0020
    103  N        -18.7650   76.1450   58.3440 N.am  143  ALA143     -0.1980
    104  CA       -18.6010   74.7240   58.0760 C.3   143  ALA143      0.1597
    105  C        -17.1720   74.2250   58.1340 C.2   143  ALA143      0.2287
    106  O        -16.9300   73.0810   58.5320 O.2   143  ALA143     -0.2864
    107  CB       -19.2380   74.3720   56.7210 C.3   143  ALA143      0.0319
    108  N        -16.2890   73.3860   61.4920 N.3   146  VAL146     -0.1231
    109  CA       -16.9510   72.1610   61.9510 C.3   146  VAL146      0.1692
    110  C        -16.0630   70.9770   61.6060 C.2   146  VAL146      0.2592
    111  O        -15.8970   70.0650   62.4150 O.2   146  VAL146     -0.2718
    112  CB       -18.3370   71.9470   61.3100 C.3   146  VAL146      0.0266
    113  CG1      -18.8930   70.5890   61.7100 C.3   146  VAL146      0.0020
    114  CG2      -19.2860   73.0360   61.7430 C.3   146  VAL146      0.0020
    115  N        -15.4670   71.0010   60.4170 N.am  147  GLY147     -0.1957
    116  CA       -14.5840   69.9150   60.0310 C.3   147  GLY147      0.1869
    117  C        -13.3600   69.8860   60.9250 C.2   147  GLY147      0.2309
    118  O        -12.9380   68.8300   61.3970 O.2   147  GLY147     -0.2863
    119  N        -14.3380   68.6090   64.4140 N.3   150  LEU150     -0.1245
    120  CA       -14.5640   67.1730   64.3560 C.3   150  LEU150      0.1561
    121  C        -13.2340   66.4530   64.2570 C.2   150  LEU150      0.2260
    122  O        -13.0170   65.4230   64.9100 O.2   150  LEU150     -0.2867
    123  CB       -15.4460   66.8130   63.1460 C.3   150  LEU150      0.0270
    124  CG       -16.9520   67.0810   63.2910 C.3   150  LEU150      0.0019
    125  CD1      -17.6650   67.0350   61.9410 C.3   150  LEU150      0.0001
    126  CD2      -17.5510   66.0610   64.2640 C.3   150  LEU150      0.0001
    127  N        -13.1510   69.8480   53.6230 N.3   174  MET174     -0.1230
    128  CA       -14.2460   68.8950   53.8240 C.3   174  MET174      0.1702
    129  C        -15.5060   69.6970   54.1410 C.2   174  MET174      0.2592
    130  O        -16.5880   69.4060   53.6310 O.2   174  MET174     -0.2718
    131  CB       -13.9450   67.9550   54.9980 C.3   174  MET174      0.0401
    132  CG       -12.9090   66.8760   54.7230 C.3   174  MET174      0.0596
    133  SD       -13.5890   65.4420   53.8570 S.3   174  MET174     -0.1393
    134  CE       -14.7480   64.7770   55.0900 C.3   174  MET174      0.0692
    135  N        -15.3440   70.7200   54.9750 N.am  175  GLY175     -0.1957
    136  CA       -16.4580   71.5640   55.3580 C.3   175  GLY175      0.1869
    137  C        -16.9110   72.4740   54.2340 C.2   175  GLY175      0.2309
    138  O        -18.1120   72.6000   53.9910 O.2   175  GLY175     -0.2863
    139  N        -19.0630   70.6540   51.5660 N.3   178  LEU178     -0.1231
    140  CA       -20.4520   70.4160   51.9410 C.3   178  LEU178      0.1693
    141  C        -21.2610   71.7030   51.9440 C.2   178  LEU178      0.2591
    142  O        -22.4180   71.7150   51.5240 O.2   178  LEU178     -0.2718
    143  CB       -20.5620   69.7660   53.3300 C.3   178  LEU178      0.0284
    144  CG       -20.0150   68.3510   53.5230 C.3   178  LEU178      0.0019
    145  CD1      -20.2710   67.9100   54.9680 C.3   178  LEU178      0.0001
    146  CD2      -20.6570   67.3760   52.5360 C.3   178  LEU178      0.0001
    147  N        -20.6710   72.7770   52.4520 N.am  179  GLN179     -0.1979
    148  CA       -21.3670   74.0520   52.5280 C.3   179  GLN179      0.1601
    149  C        -21.6550   74.6130   51.1360 C.2   179  GLN179      0.2287
    150  O        -22.7620   75.0880   50.8640 O.2   179  GLN179     -0.2864
    151  CB       -20.5580   75.0480   53.3740 C.3   179  GLN179      0.0394
    152  CG       -21.2030   76.4160   53.5750 C.3   179  GLN179      0.0908
    153  CD       -22.5390   76.3380   54.2760 C.2   179  GLN179      0.2608
    154  OE1      -22.8220   75.3770   54.9850 O.2   179  GLN179     -0.2717
    155  NE2      -23.3820   77.3430   54.0630 N.am  179  GLN179     -0.0878
    156  N        -24.4290   72.7740   49.3470 N.3   182  ASN182     -0.1240
    157  CA       -25.6940   73.0880   50.0060 C.3   182  ASN182      0.1653
    158  C        -26.1930   74.4370   49.5030 C.2   182  ASN182      0.2266
    159  O        -27.3440   74.5630   49.0780 O.2   182  ASN182     -0.2867
    160  CB       -25.5360   73.1180   51.5250 C.3   182  ASN182      0.1155
    161  CG       -25.7590   71.7510   52.1650 C.2   182  ASN182      0.2627
    162  OD1      -26.8620   71.2130   52.1280 O.2   182  ASN182     -0.2716
    163  ND2      -24.7160   71.1940   52.7620 N.am  182  ASN182     -0.0877
    164  N        -27.3080   74.1310   45.8460 N.3   185  ARG185     -0.1245
    165  CA       -28.5600   73.3910   45.8130 C.3   185  ARG185      0.1563
    166  C        -29.7530   74.1880   46.3460 C.2   185  ARG185      0.2260
    167  O        -30.8320   74.1690   45.7520 O.2   185  ARG185     -0.2867
    168  CB       -28.4020   72.0790   46.6080 C.3   185  ARG185      0.0307
    169  CG       -29.6680   71.2490   46.7490 C.3   185  ARG185      0.0489
    170  CD       -30.1430   71.2140   48.1920 C.3   185  ARG185      0.2205
    171  NE       -29.3990   70.2470   48.9910 N.pl3 185  ARG185     -0.0865
    172  CZ       -29.1170   70.3770   50.2870 C.cat 185  ARG185      0.5346
    173  NH1      -29.5020   71.4480   50.9770 N.pl3 185  ARG185      0.1354
    174  NH2      -28.4660   69.4030   50.9070 N.pl3 185  ARG185      0.1354
    175  N         -8.2710   63.5350   52.9210 N.3   243  TYR243     -0.1241
    176  CA        -8.7980   63.4450   54.2800 C.3   243  TYR243      0.1605
    177  C         -9.3830   62.0540   54.5380 C.2   243  TYR243      0.2264
    178  O         -8.9950   61.3800   55.4940 O.2   243  TYR243     -0.2867
    179  CB        -9.8710   64.5170   54.4990 C.3   243  TYR243      0.0534
    180  CG       -10.4490   64.5650   55.9030 C.ar  243  TYR243     -0.0201
    181  CD1      -11.4410   63.6590   56.3140 C.ar  243  TYR243     -0.0009
    182  CD2      -10.0050   65.5150   56.8230 C.ar  243  TYR243     -0.0009
    183  CE1      -11.9660   63.7010   57.6080 C.ar  243  TYR243      0.0417
    184  CE2      -10.5260   65.5640   58.1150 C.ar  243  TYR243      0.0417
    185  CZ       -11.4980   64.6560   58.5030 C.ar  243  TYR243      0.1957
    186  OH       -11.9680   64.6930   59.7960 O.3   243  TYR243     -0.2866
    187  N        -19.0810   58.0510   58.9450 N.3   255  PHE255     -0.1227
    188  CA       -19.5140   59.3700   59.3760 C.3   255  PHE255      0.1736
    189  C        -18.9960   60.4810   58.4670 C.2   255  PHE255      0.2595
    190  O        -19.7260   61.4070   58.1370 O.2   255  PHE255     -0.2718
    191  CB       -19.0560   59.6040   60.8260 C.3   255  PHE255      0.0547
    192  CG       -19.3480   60.9840   61.3530 C.ar  255  PHE255     -0.0202
    193  CD1      -20.6020   61.2970   61.8690 C.ar  255  PHE255     -0.0042
    194  CD2      -18.3590   61.9700   61.3450 C.ar  255  PHE255     -0.0042
    195  CE1      -20.8710   62.5760   62.3680 C.ar  255  PHE255     -0.0003
    196  CE2      -18.6180   63.2460   61.8380 C.ar  255  PHE255     -0.0003
    197  CZ       -19.8810   63.5490   62.3520 C.ar  255  PHE255     -0.0000
    198  N        -17.7390   60.3930   58.0660 N.am  256  CYS256     -0.1970
    199  CA       -17.1640   61.4190   57.2120 C.3   256  CYS256      0.1712
    200  C        -17.4680   61.2490   55.7210 C.2   256  CYS256      0.2296
    201  O        -17.7940   62.2220   55.0400 O.2   256  CYS256     -0.2864
    202  CB       -15.6530   61.4940   57.4260 C.3   256  CYS256      0.0983
    203  SG       -15.1400   62.1060   59.0440 S.3   256  CYS256     -0.0798
    204  N        -21.6170   61.8990   53.9550 N.3   259  PRO259     -0.2102
    205  CA       -22.0150   63.2380   53.5080 C.3   259  PRO259      0.1504
    206  C        -21.2450   63.7060   52.2670 C.2   259  PRO259      0.2575
    207  O        -21.8240   64.3390   51.3750 O.2   259  PRO259     -0.2718
    208  CB       -21.6990   64.1120   54.7260 C.3   259  PRO259      0.0282
    209  CG       -21.8680   63.1720   55.8620 C.3   259  PRO259      0.0208
    210  CD       -21.1690   61.9420   55.3560 C.3   259  PRO259      0.0893
    211  N        -19.9540   63.3860   52.1990 N.am  260  GLN260     -0.1980
    212  CA       -19.1460   63.7940   51.0550 C.3   260  GLN260      0.1601
    213  C        -19.6830   63.2050   49.7510 C.2   260  GLN260      0.2287
    214  O        -19.8310   63.9150   48.7580 O.2   260  GLN260     -0.2864
    215  CB       -17.6680   63.4190   51.2490 C.3   260  GLN260      0.0394
    216  CG       -16.9430   64.1880   52.3740 C.3   260  GLN260      0.0908
    217  CD       -16.9670   65.7110   52.2070 C.2   260  GLN260      0.2608
    218  OE1      -16.8080   66.2380   51.1000 O.2   260  GLN260     -0.2717
    219  NE2      -17.1430   66.4210   53.3130 N.am  260  GLN260     -0.0878
    220  N        -22.7330   62.0730   49.2530 N.3   262  MET262     -0.1245
    221  CA       -24.0780   62.6190   49.0500 C.3   262  MET262      0.1570
    222  C        -23.9930   64.0090   48.4150 C.2   262  MET262      0.2261
    223  O        -24.8390   64.3760   47.6010 O.2   262  MET262     -0.2867
    224  CB       -24.8540   62.6960   50.3700 C.3   262  MET262      0.0387
    225  CG       -25.4050   61.3590   50.8520 C.3   262  MET262      0.0595
    226  SD       -26.3890   61.4670   52.3840 S.3   262  MET262     -0.1393
    227  CE       -27.9590   62.1430   51.7690 C.3   262  MET262      0.0692
@<TRIPOS>BOND
     1   167   166    2
     2   165   164    1
     3   165   166    1
     4   165   168    1
     5   168   169    1
     6   169   170    1
     7   223   222    2
     8   170   171    1
     9   222   221    1
    10   214   213    2
    11   171   172    2
    12   221   220    1
    13   221   224    1
    14   159   158    2
    15   156   157    1
    16   158   157    1
    17   213   212    1
    18   157   160    1
    19   172   174    1
    20   172   173    1
    21   224   225    1
    22   225   226    1
    23   150   149    2
    24   212   215    1
    25   212   211    1
    26   218   217    2
    27   149   148    1
    28   215   216    1
    29   207   206    2
    30   142   141    2
    31   160   161    1
    32   139   140    1
    33   227   226    1
    34   140   141    1
    35   140   143    1
    36   141   147   am
    37   162   161    2
    38   161   163   am
    39   211   206   am
    40   217   216    1
    41   217   219   am
    42   206   205    1
    43   147   148    1
    44   148   151    1
    45   146   144    1
    46   175   176    1
    47   143   144    1
    48   151   152    1
    49   205   204    1
    50   205   208    1
    51   144   145    1
    52   152   153    1
    53   127   128    1
    54   130   129    2
    55   128   129    1
    56   128   131    1
    57   133   132    1
    58   133   134    1
    59   204   210    1
    60   138   137    2
    61   155   153   am
    62   129   135   am
    63   137   136    1
    64   153   154    2
    65   176   179    1
    66   176   177    1
    67   179   180    1
    68   177   178    2
    69   132   131    1
    70   208   209    1
    71   135   136    1
    72   201   200    2
    73   210   209    1
    74    23    22    1
    75   200   199    1
    76   180   181   ar
    77   180   182   ar
    78    22    24    1
    79    22    21    2
    80   181   183   ar
    81    30    29    1
    82    20    21    1
    83    20    19    1
    84   107   104    1
    85   182   184   ar
    86   199   202    1
    87   199   198    1
    88    29    26    1
    89   202   203    1
    90   183   185   ar
    91    18    19    1
    92    18    15    1
    93   198   189   am
    94   104   105    1
    95   104   103    1
    96   184   185   ar
    97   105   106    2
    98   190   189    2
    99   103    98   am
   100   189   188    1
   101   100   101    1
   102   100   102    1
   103   100    97    1
   104   185   186    1
   105    39    37   ar
   106    39    41   ar
   107    37    36   ar
   108    26    25    1
   109    26    27    1
   110   187   188    1
   111    25    16   am
   112    96    97    1
   113    98    97    1
   114    98    99    2
   115    16    17    2
   116    16    15    1
   117    27    31   am
   118    27    28    2
   119    15    14    1
   120   188   191    1
   121    31    32    1
   122    41    40   ar
   123    36    35    1
   124    36    38   ar
   125    35    32    1
   126    32    33    1
   127   116   115    1
   128   116   117    1
   129    14    10   am
   130    40    38   ar
   131   115   110   am
   132   191   192    1
   133   117   118    2
   134   112   113    1
   135   112   114    1
   136   112   109    1
   137   194   192   ar
   138   194   196   ar
   139   192   193   ar
   140    33    34    2
   141    10    11    2
   142    10     9    1
   143   108   109    1
   144    13    12    1
   145   110   109    1
   146   110   111    2
   147   196   197   ar
   148   193   195   ar
   149    79    78    1
   150   125   124    1
   151     9    12    1
   152     9     8    1
   153   197   195   ar
   154    95    93   ar
   155     4     3    2
   156    94    93   ar
   157    93    92    1
   158    77    78   ar
   159    77    75   ar
   160    92    89    1
   161    78    76   ar
   162    91    90    2
   163     8     3   am
   164   123   124    1
   165   123   120    1
   166     3     2    1
   167   124   126    1
   168    42    43    1
   169    89    90    1
   170    89    88    1
   171    75    73   ar
   172    47    49    1
   173    47    46    1
   174    76    74   ar
   175   121   120    1
   176   121   122    2
   177     2     1    1
   178     2     5    1
   179   120   119    1
   180    43    46    1
   181    43    44    1
   182    86    85    1
   183    73    74   ar
   184    73    72    1
   185    46    48    1
   186     5     6    1
   187     5     7    1
   188    83    82    2
   189    84    85    1
   190    84    81    1
   191    87    85    1
   192    44    45    2
   193    66    67   ar
   194    66    64   ar
   195    82    81    1
   196    55    54    1
   197    72    69    1
   198    67    65   ar
   199    81    80    1
   200    71    70    2
   201    64    62   ar
   202    69    70    1
   203    69    68    1
   204    56    54    1
   205    54    51    1
   206    65    63   ar
   207    68    59   am
   208    62    63   ar
   209    62    61    1
   210    53    52    2
   211    60    59    2
   212    59    58    1
   213    51    52    1
   214    51    50    1
   215    61    58    1
   216    58    57    1
