@<TRIPOS>MOLECULE
tmp/1ezqA00.pdb
 208 206 0 0 0
SMALL
GASTEIGER

@<TRIPOS>ATOM
      1  N         13.9240   10.5720   14.2370 N.3    42  HIS42      -0.1241
      2  CA        12.4750   10.5590   14.1530 C.3    42  HIS42       0.1621
      3  C         11.8370   11.8790   14.5310 C.2    42  HIS42       0.2264
      4  O         10.6390   12.0530   14.3450 O.2    42  HIS42      -0.2867
      5  CB        11.8900    9.4340   15.0130 C.3    42  HIS42       0.0745
      6  CG        11.7020    9.7970   16.4530 C.ar   42  HIS42       0.0817
      7  ND1       12.6340    9.4960   17.4250 N.ar   42  HIS42      -0.2268
      8  CD2       10.6750   10.4020   17.0950 C.ar   42  HIS42       0.1154
      9  CE1       12.1880    9.8970   18.6030 C.ar   42  HIS42       0.1986
     10  NE2       11.0010   10.4520   18.4300 N.ar   42  HIS42      -0.2212
     11  N          9.6740    2.4100   11.0640 N.3    83  GLU83      -0.1231
     12  CA         9.0070    1.2480   11.6580 C.3    83  GLU83       0.1699
     13  C          9.6660    0.5450   12.8440 C.2    83  GLU83       0.2593
     14  O          8.9810    0.1330   13.7770 O.2    83  GLU83      -0.2718
     15  CB         8.7410    0.2100   10.5700 C.3    83  GLU83       0.0402
     16  CG         8.0250    0.7690    9.3580 C.3    83  GLU83       0.1161
     17  CD         6.6190    0.2120    9.2110 C.2    83  GLU83       0.3649
     18  OE1        6.2160   -0.6180   10.0600 O.co2  83  GLU83      -0.2457
     19  OE2        5.9190    0.6040    8.2490 O.co2  83  GLU83      -0.2457
     20  N         10.9860    0.4010   12.8060 N.am   84  THR84      -0.1939
     21  CA        11.7150   -0.2810   13.8690 C.3    84  THR84       0.2028
     22  C         12.3730    0.6590   14.8760 C.2    84  THR84       0.2642
     23  O         12.8200    0.2220   15.9380 O.2    84  THR84      -0.2714
     24  CB        12.8080   -1.1820   13.2720 C.3    84  THR84       0.1808
     25  OG1       13.7250   -0.3860   12.5140 O.3    84  THR84      -0.2208
     26  CG2       12.1920   -2.2260   12.3500 C.3    84  THR84       0.0379
     27  N         12.4300    1.9450   14.5360 N.am   85  TYR85      -0.1973
     28  CA        13.0510    2.9560   15.3900 C.3    85  TYR85       0.1639
     29  C         14.5530    2.7510   15.4190 C.2    85  TYR85       0.2290
     30  O         15.2490    3.3110   16.2680 O.2    85  TYR85      -0.2864
     31  CB        12.5050    2.8800   16.8160 C.3    85  TYR85       0.0560
     32  CG        11.2620    3.7070   17.0360 C.ar   85  TYR85      -0.0198
     33  CD1       10.0230    3.2770   16.5590 C.ar   85  TYR85      -0.0009
     34  CD2       11.3220    4.9190   17.7240 C.ar   85  TYR85      -0.0009
     35  CE1        8.8730    4.0300   16.7630 C.ar   85  TYR85       0.0417
     36  CE2       10.1760    5.6840   17.9350 C.ar   85  TYR85       0.0417
     37  CZ         8.9540    5.2330   17.4540 C.ar   85  TYR85       0.1957
     38  OH         7.8140    5.9740   17.6810 O.3    85  TYR85      -0.2866
     39  N          6.9650   15.6290   28.6610 N.3   132  ARG132     -0.1245
     40  CA         5.9270   15.4410   29.6660 C.3   132  ARG132      0.1563
     41  C          6.4540   15.0650   31.0400 C.2   132  ARG132      0.2260
     42  O          7.5280   14.4750   31.1750 O.2   132  ARG132     -0.2867
     43  CB         4.9380   14.3740   29.2140 C.3   132  ARG132      0.0307
     44  CG         4.6100   14.4330   27.7440 C.3   132  ARG132      0.0489
     45  CD         3.5500   13.4240   27.3990 C.3   132  ARG132      0.2205
     46  NE         2.9790   13.6870   26.0860 N.pl3 132  ARG132     -0.0865
     47  CZ         1.8160   13.1990   25.6670 C.cat 132  ARG132      0.5346
     48  NH1        1.0980   12.4160   26.4640 N.pl3 132  ARG132      0.1354
     49  NH2        1.3650   13.4980   24.4540 N.pl3 132  ARG132      0.1354
     50  N          2.8090   10.4520   31.7360 N.3   135  GLU135     -0.1245
     51  CA         2.4790    9.8420   30.4450 C.3   135  GLU135      0.1567
     52  C          1.4180   10.5520   29.5990 C.2   135  GLU135      0.2260
     53  O          1.5870   10.6920   28.3920 O.2   135  GLU135     -0.2867
     54  CB         2.0550    8.3880   30.6470 C.3   135  GLU135      0.0388
     55  CG         1.9460    7.6000   29.3580 C.3   135  GLU135      0.1160
     56  CD         1.8440    6.1010   29.5860 C.2   135  GLU135      0.3649
     57  OE1        2.4150    5.5850   30.5790 O.co2 135  GLU135     -0.2457
     58  OE2        1.1840    5.4380   28.7620 O.co2 135  GLU135     -0.2457
     59  N          9.0680   -4.8570   21.8100 N.3   162  PHE162     -0.1227
     60  CA         9.6600   -4.7280   20.4810 C.3   162  PHE162      0.1736
     61  C         11.1500   -5.0030   20.4400 C.2   162  PHE162      0.2595
     62  O         11.8340   -4.9230   21.4530 O.2   162  PHE162     -0.2718
     63  CB         9.3500   -3.3410   19.9360 C.3   162  PHE162      0.0547
     64  CG         7.8880   -3.0470   19.9060 C.ar  162  PHE162     -0.0202
     65  CD1        7.1250   -3.3630   18.7920 C.ar  162  PHE162     -0.0042
     66  CD2        7.2530   -2.5300   21.0240 C.ar  162  PHE162     -0.0042
     67  CE1        5.7550   -3.1740   18.7950 C.ar  162  PHE162     -0.0003
     68  CE2        5.8790   -2.3400   21.0360 C.ar  162  PHE162     -0.0003
     69  CZ         5.1290   -2.6630   19.9190 C.ar  162  PHE162     -0.0000
     70  N         11.6500   -5.3400   19.2570 N.am  163  ILE163     -0.1980
     71  CA        13.0630   -5.6560   19.0970 C.3   163  ILE163      0.1595
     72  C         13.9940   -4.5330   19.5220 C.2   163  ILE163      0.2287
     73  O         13.8590   -3.3950   19.0710 O.2   163  ILE163     -0.2864
     74  CB        13.3980   -6.0190   17.6350 C.3   163  ILE163      0.0276
     75  CG1       12.5380   -7.2010   17.1790 C.3   163  ILE163      0.0022
     76  CG2       14.8710   -6.3640   17.5130 C.3   163  ILE163      0.0022
     77  CD1       12.7640   -8.4790   17.9630 C.3   163  ILE163      0.0001
     78  N         11.3380    8.4100   34.2460 N.3   179  ASP179     -0.1225
     79  CA        11.6430    7.9450   32.8920 C.3   179  ASP179      0.1805
     80  C         11.4530    9.1150   31.9380 C.2   179  ASP179      0.2598
     81  O         10.6430    9.9920   32.1990 O.2   179  ASP179     -0.2718
     82  CB        10.6760    6.8060   32.5280 C.3   179  ASP179      0.1424
     83  CG        10.8440    6.3060   31.1070 C.2   179  ASP179      0.3668
     84  OD1       11.9220    6.5090   30.5080 O.co2 179  ASP179     -0.2456
     85  OD2        9.8860    5.6920   30.5910 O.co2 179  ASP179     -0.2456
     86  N         12.2040    9.1490   30.8440 N.am  180  ALA180     -0.1966
     87  CA        12.0260   10.2260   29.8820 C.3   180  ALA180      0.1728
     88  C         10.5910   10.0710   29.3860 C.2   180  ALA180      0.2616
     89  O          9.8850    9.1700   29.8360 O.2   180  ALA180     -0.2715
     90  CB        13.0200   10.0840   28.7250 C.3   180  ALA180      0.0334
     91  N         10.1530   10.9490   28.4880 N.am  181  CYS181     -0.1954
     92  CA         8.7980   10.8740   27.9440 C.3   181  CYS181      0.1843
     93  C          8.6840   11.6930   26.6650 C.2   181  CYS181      0.2625
     94  O          9.6710   12.2430   26.1900 O.2   181  CYS181     -0.2714
     95  CB         7.7840   11.3700   28.9690 C.3   181  CYS181      0.0997
     96  SG         6.0880   10.7910   28.6530 S.3   181  CYS181     -0.0797
     97  N          7.4870   11.7680   26.0980 N.am  182  GLN182     -0.1977
     98  CA         7.3020   12.5310   24.8660 C.3   182  GLN182      0.1601
     99  C          7.7690   13.9800   25.0230 C.2   182  GLN182      0.2287
    100  O          7.4180   14.6530   25.9970 O.2   182  GLN182     -0.2864
    101  CB         5.8350   12.5200   24.4510 C.3   182  GLN182      0.0394
    102  CG         5.6380   12.5820   22.9520 C.3   182  GLN182      0.0908
    103  CD         4.2400   12.1890   22.5510 C.2   182  GLN182      0.2608
    104  OE1        3.2660   12.7760   23.0140 O.2   182  GLN182     -0.2717
    105  NE2        4.1290   11.1870   21.6900 N.am  182  GLN182     -0.0878
    106  N         12.4200   13.4370   23.5880 N.3   185  SER185     -0.1217
    107  CA        13.0230   12.7430   22.4510 C.3   185  SER185      0.1889
    108  C         14.0220   13.5890   21.6690 C.2   185  SER185      0.2288
    109  O         13.7550   14.7440   21.3570 O.2   185  SER185     -0.2866
    110  CB        11.9240   12.2350   21.5060 C.3   185  SER185      0.2089
    111  OG        10.7880   11.7770   22.2270 O.3   185  SER185     -0.2183
    112  N         17.7330   10.4260   23.7010 N.3   203  VAL203     -0.1231
    113  CA        16.3860    9.9940   24.0960 C.3   203  VAL203      0.1692
    114  C         15.6320    9.5410   22.8340 C.2   203  VAL203      0.2593
    115  O         15.3270   10.3440   21.9510 O.2   203  VAL203     -0.2718
    116  CB        15.5860   11.1240   24.7730 C.3   203  VAL203      0.0266
    117  CG1       14.1830   10.6390   25.1050 C.3   203  VAL203      0.0020
    118  CG2       16.2830   11.5670   26.0470 C.3   203  VAL203      0.0020
    119  N         15.3280    8.2480   22.7640 N.am  204  SER204     -0.1938
    120  CA        14.6580    7.6720   21.6020 C.3   204  SER204      0.2055
    121  C         13.1850    7.3320   21.8020 C.2   204  SER204      0.2643
    122  O         12.3100    8.0020   21.2480 O.2   204  SER204     -0.2714
    123  CB        15.4120    6.4140   21.1540 C.3   204  SER204      0.2130
    124  OG        14.9620    5.9710   19.8900 O.3   204  SER204     -0.2179
    125  N         12.9060    6.2840   22.5750 N.am  205  TRP205     -0.1959
    126  CA        11.5280    5.8890   22.8050 C.3   205  TRP205      0.1771
    127  C         11.3250    5.0120   24.0270 C.2   205  TRP205      0.2620
    128  O         12.2210    4.8190   24.8520 O.2   205  TRP205     -0.2715
    129  CB        10.9700    5.1640   21.5770 C.3   205  TRP205      0.0590
    130  CG        11.6950    3.8830   21.2550 C.ar  205  TRP205      0.0006
    131  CD1       12.8820    3.7650   20.6010 C.ar  205  TRP205      0.0946
    132  CD2       11.2850    2.5410   21.5910 C.ar  205  TRP205      0.0152
    133  NE1       13.2400    2.4410   20.5070 N.ar  205  TRP205     -0.2442
    134  CE2       12.2790    1.6700   21.1060 C.ar  205  TRP205      0.0810
    135  CE3       10.1730    1.9950   22.2540 C.ar  205  TRP205      0.0012
    136  CZ2       12.2000    0.2770   21.2610 C.ar  205  TRP205      0.0191
    137  CZ3       10.0940    0.6070   22.4080 C.ar  205  TRP205      0.0001
    138  CH2       11.1030   -0.2310   21.9130 C.ar  205  TRP205      0.0015
    139  N         10.1130    4.4880   24.1190 N.am  206  GLY206     -0.1940
    140  CA         9.7310    3.6250   25.2150 C.3   206  GLY206      0.2014
    141  C          8.2560    3.3760   25.0080 C.2   206  GLY206      0.2639
    142  O          7.6270    4.0800   24.2270 O.2   206  GLY206     -0.2714
    143  N          7.6980    2.3760   25.6750 N.am  207  GLU207     -0.1963
    144  CA         6.2780    2.0970   25.5290 C.3   207  GLU207      0.1733
    145  C          5.6340    2.9150   26.6230 C.2   207  GLU207      0.2617
    146  O          5.6860    2.5520   27.7950 O.2   207  GLU207     -0.2715
    147  CB         6.0010    0.6030   25.7200 C.3   207  GLU207      0.0429
    148  CG         6.6070   -0.2690   24.6300 C.3   207  GLU207      0.1163
    149  CD         6.7880   -1.7120   25.0770 C.2   207  GLU207      0.3649
    150  OE1        5.8070   -2.3080   25.5800 O.co2 207  GLU207     -0.2457
    151  OE2        7.9100   -2.2480   24.9250 O.co2 207  GLU207     -0.2457
    152  N          5.0420    4.0360   26.2370 N.am  208  GLY208     -0.1940
    153  CA         4.4450    4.9070   27.2290 C.3   208  GLY208      0.2014
    154  C          5.5620    5.5760   28.0140 C.2   208  GLY208      0.2639
    155  O          6.6630    5.7850   27.4910 O.2   208  GLY208     -0.2714
    156  N          5.3000    5.9020   29.2700 N.am  209  CYS209     -0.1967
    157  CA         6.3090    6.5520   30.0890 C.3   209  CYS209      0.1712
    158  C          6.2630    6.0800   31.5400 C.2   209  CYS209      0.2296
    159  O          5.2190    6.1590   32.1980 O.2   209  CYS209     -0.2864
    160  CB         6.1380    8.0790   30.0330 C.3   209  CYS209      0.0983
    161  SG         6.2890    8.7940   28.3650 S.3   209  CYS209     -0.0798
    162  N          6.2310    3.1790   32.7680 N.3   211  ARG211     -0.1245
    163  CA         5.3240    2.0540   32.9810 C.3   211  ARG211      0.1563
    164  C          6.0520    0.9320   33.7130 C.2   211  ARG211      0.2260
    165  O          7.2570    0.7420   33.5260 O.2   211  ARG211     -0.2867
    166  CB         4.8170    1.5260   31.6420 C.3   211  ARG211      0.0307
    167  CG         3.7370    2.3630   30.9920 C.3   211  ARG211      0.0489
    168  CD         3.4220    1.8130   29.6080 C.3   211  ARG211      0.2205
    169  NE         2.2210    2.4000   29.0230 N.pl3 211  ARG211     -0.0865
    170  CZ         1.7760    2.1180   27.8000 C.cat 211  ARG211      0.5346
    171  NH1        2.4360    1.2560   27.0330 N.pl3 211  ARG211      0.1354
    172  NH2        0.6710    2.6940   27.3410 N.pl3 211  ARG211      0.1354
    173  N         11.1840   -0.1030   30.2290 N.3   215  TYR215     -0.1227
    174  CA        12.2890    0.8330   30.4070 C.3   215  TYR215      0.1736
    175  C         12.3170    1.9190   29.3430 C.2   215  TYR215      0.2596
    176  O         11.4480    1.9770   28.4730 O.2   215  TYR215     -0.2718
    177  CB        13.6210    0.0890   30.3760 C.3   215  TYR215      0.0548
    178  CG        13.7460   -0.9530   31.4460 C.ar  215  TYR215     -0.0200
    179  CD1       14.0110   -0.5870   32.7650 C.ar  215  TYR215     -0.0009
    180  CD2       13.5940   -2.3050   31.1490 C.ar  215  TYR215     -0.0009
    181  CE1       14.1230   -1.5380   33.7670 C.ar  215  TYR215      0.0417
    182  CE2       13.7050   -3.2740   32.1440 C.ar  215  TYR215      0.0417
    183  CZ        13.9700   -2.8790   33.4520 C.ar  215  TYR215      0.1957
    184  OH        14.0940   -3.8190   34.4480 O.3   215  TYR215     -0.2866
    185  N         13.3330    2.7760   29.4270 N.am  216  GLY216     -0.1942
    186  CA        13.5080    3.8390   28.4580 C.3   216  GLY216      0.2014
    187  C         14.5320    3.3930   27.4330 C.2   216  GLY216      0.2639
    188  O         15.5750    2.8440   27.8020 O.2   216  GLY216     -0.2714
    189  N         14.2430    3.6160   26.1540 N.am  217  ILE217     -0.1963
    190  CA        15.1600    3.2120   25.0970 C.3   217  ILE217      0.1727
    191  C         15.9070    4.4110   24.5080 C.2   217  ILE217      0.2616
    192  O         15.3050    5.4280   24.1560 O.2   217  ILE217     -0.2715
    193  CB        14.4140    2.4550   23.9640 C.3   217  ILE217      0.0290
    194  CG1       13.3440    1.5240   24.5530 C.3   217  ILE217      0.0022
    195  CG2       15.4070    1.6740   23.1330 C.3   217  ILE217      0.0023
    196  CD1       13.8960    0.3820   25.4000 C.3   217  ILE217      0.0001
    197  N         17.2240    4.2770   24.4090 N.am  218  TYR218     -0.1974
    198  CA        18.0860    5.3280   23.8920 C.3   218  TYR218      0.1639
    199  C         18.9280    4.8330   22.7390 C.2   218  TYR218      0.2290
    200  O         19.3110    3.6630   22.6980 O.2   218  TYR218     -0.2864
    201  CB        19.0420    5.8260   24.9850 C.3   218  TYR218      0.0560
    202  CG        18.3370    6.3620   26.1950 C.ar  218  TYR218     -0.0198
    203  CD1       17.8890    5.5020   27.2000 C.ar  218  TYR218     -0.0009
    204  CD2       18.0560    7.7250   26.3140 C.ar  218  TYR218     -0.0009
    205  CE1       17.1750    5.9830   28.2850 C.ar  218  TYR218      0.0417
    206  CE2       17.3440    8.2100   27.3960 C.ar  218  TYR218      0.0417
    207  CZ        16.9060    7.3360   28.3730 C.ar  218  TYR218      0.1957
    208  OH        16.1830    7.8120   29.4340 O.3   218  TYR218     -0.2866
@<TRIPOS>BOND
     1    19    17   ar
     2    17    16    1
     3    17    18   ar
     4    16    15    1
     5    15    12    1
     6    11    12    1
     7    12    13    1
     8    26    24    1
     9    25    24    1
    10    20    13   am
    11    20    21    1
    12    13    14    2
    13    24    21    1
    14    21    22    1
    15     2     1    1
    16     2     3    1
    17     2     5    1
    18     4     3    2
    19    27    22   am
    20    27    28    1
    21    22    23    2
    22     5     6    1
    23    28    29    1
    24    28    31    1
    25    29    30    2
    26     6     8   ar
    27     6     7   ar
    28    33    35   ar
    29    33    32   ar
    30    35    37   ar
    31    31    32    1
    32    32    34   ar
    33     8    10   ar
    34    75    74    1
    35    75    77    1
    36     7     9   ar
    37    37    38    1
    38    37    36   ar
    39    76    74    1
    40    74    71    1
    41    34    36   ar
    42    10     9   ar
    43    65    67   ar
    44    65    64   ar
    45    67    69   ar
    46    73    72    2
    47    71    70    1
    48    71    72    1
    49    70    61   am
    50   124   123    1
    51    64    63    1
    52    64    66   ar
    53    69    68   ar
    54    63    60    1
    55    61    60    1
    56    61    62    2
    57    60    59    1
    58   133   131   ar
    59   133   134   ar
    60   131   130   ar
    61    66    68   ar
    62   134   136   ar
    63   134   132   ar
    64   123   120    1
    65   122   121    2
    66   130   129    1
    67   130   132   ar
    68   136   138   ar
    69   109   108    2
    70   110   111    1
    71   110   107    1
    72   129   126    1
    73   132   135   ar
    74   120   121    1
    75   120   119    1
    76   108   107    1
    77   105   103   am
    78   121   125   am
    79   138   137   ar
    80   115   114    2
    81   135   137   ar
    82   107   106    1
    83   103   102    1
    84   103   104    2
    85   125   126    1
    86   200   199    2
    87   199   198    1
    88   119   114   am
    89   126   127    1
    90   114   113    1
    91   102   101    1
    92   195   193    1
    93   112   113    1
    94   198   197    1
    95   198   201    1
    96   193   194    1
    97   193   190    1
    98   127   139   am
    99   127   128    2
   100   113   116    1
   101   139   140    1
   102   192   191    2
   103   142   141    2
   104   197   191   am
   105   101    98    1
   106    49    47    1
   107   191   190    1
   108   194   196    1
   109   148   149    1
   110   148   147    1
   111   116   117    1
   112   116   118    1
   113    98    99    1
   114    98    97    1
   115   151   149   ar
   116   201   202    1
   117   141   140    1
   118   141   143   am
   119    99   100    2
   120   149   150   ar
   121   190   189    1
   122   144   143    1
   123   144   147    1
   124   144   145    1
   125    47    46    2
   126    47    48    1
   127    46    45    1
   128    97    93   am
   129   189   187   am
   130    94    93    2
   131   202   204   ar
   132   202   203   ar
   133   152   145   am
   134   152   153    1
   135   204   206   ar
   136   145   146    2
   137    93    92    1
   138   171   170    1
   139   203   205   ar
   140   153   154    1
   141   172   170    1
   142   206   207   ar
   143    45    44    1
   144   187   188    2
   145   187   186    1
   146   155   154    2
   147    44    43    1
   148   170   169    2
   149    92    91    1
   150    92    95    1
   151   154   156   am
   152   205   207   ar
   153   161    96    1
   154   161   160    1
   155   207   208    1
   156    53    52    2
   157   186   185    1
   158   176   175    2
   159    91    88   am
   160    96    95    1
   161    39    40    1
   162    90    87    1
   163    58    56   ar
   164   169   168    1
   165    43    40    1
   166   156   157    1
   167   175   185   am
   168   175   174    1
   169    55    56    1
   170    55    54    1
   171    88    89    2
   172    88    87    1
   173    56    57   ar
   174    52    51    1
   175   168   167    1
   176    40    41    1
   177    87    86    1
   178   160   157    1
   179   157   158    1
   180   173   174    1
   181   177   174    1
   182   177   178    1
   183    51    54    1
   184    51    50    1
   185    84    83   ar
   186    85    83   ar
   187    86    80   am
   188   167   166    1
   189    41    42    2
   190    83    82    1
   191   180   178   ar
   192   180   182   ar
   193   178   179   ar
   194   158   159    2
   195   166   163    1
   196    80    81    2
   197    80    79    1
   198   182   183   ar
   199    82    79    1
   200   179   181   ar
   201   162   163    1
   202    79    78    1
   203   163   164    1
   204   183   181   ar
   205   183   184    1
   206   165   164    2
