@<TRIPOS>MOLECULE
tmp/1ezvC03.pdb
 230 217 0 0 0
SMALL
GASTEIGER

@<TRIPOS>ATOM
      1  N         -8.9700   67.3460    4.9310 N.3    16  TYR16      -0.1227
      2  CA        -9.8100   66.3770    4.2300 C.3    16  TYR16       0.1736
      3  C        -11.0700   65.9780    4.9890 C.2    16  TYR16       0.2595
      4  O        -12.0840   65.6790    4.3690 O.2    16  TYR16      -0.2718
      5  CB        -9.0080   65.1200    3.8550 C.3    16  TYR16       0.0548
      6  CG        -8.1740   65.2710    2.5920 C.ar   16  TYR16      -0.0200
      7  CD1       -6.9280   65.9090    2.6260 C.ar   16  TYR16      -0.0009
      8  CD2       -8.6210   64.7630    1.3660 C.ar   16  TYR16      -0.0009
      9  CE1       -6.1440   66.0320    1.4820 C.ar   16  TYR16       0.0417
     10  CE2       -7.8410   64.8820    0.2030 C.ar   16  TYR16       0.0417
     11  CZ        -6.5980   65.5140    0.2700 C.ar   16  TYR16       0.1957
     12  OH        -5.7900   65.5930   -0.8540 O.3    16  TYR16      -0.2866
     13  N        -11.0340   66.0250    6.3200 N.am   17  ILE17      -0.1980
     14  CA       -12.0670   65.3660    7.1250 C.3    17  ILE17       0.1595
     15  C        -12.7450   66.2720    8.1530 C.2    17  ILE17       0.2287
     16  O        -13.8560   65.9780    8.6010 O.2    17  ILE17      -0.2864
     17  CB       -11.4840   64.1010    7.8470 C.3    17  ILE17       0.0276
     18  CG1      -11.2840   62.9720    6.8400 C.3    17  ILE17       0.0022
     19  CG2      -12.4270   63.5910    8.9240 C.3    17  ILE17       0.0022
     20  CD1      -10.0100   62.1820    7.0810 C.3    17  ILE17       0.0001
     21  N        -12.8700   70.7080    5.9540 N.3    20  SER20      -0.1217
     22  CA       -13.1700   70.6620    4.5210 C.3    20  SER20       0.1889
     23  C        -14.5440   71.2690    4.2280 C.2    20  SER20       0.2288
     24  O        -15.5560   70.8070    4.7430 O.2    20  SER20      -0.2866
     25  CB       -13.1250   69.2030    4.0320 C.3    20  SER20       0.2089
     26  OG       -13.5240   69.1030    2.6800 O.3    20  SER20      -0.2183
     27  N        -17.9050   71.8520    2.7380 N.3    22  GLN22      -0.1245
     28  CA       -18.8750   71.1290    1.9230 C.3    22  GLN22       0.1566
     29  C        -20.0300   72.0490    1.5230 C.2    22  GLN22       0.2260
     30  O        -20.4100   72.9460    2.2840 O.2    22  GLN22      -0.2867
     31  CB       -19.4110   69.9260    2.7000 C.3    22  GLN22       0.0367
     32  CG       -18.3350   68.9480    3.1370 C.3    22  GLN22       0.0905
     33  CD       -17.4750   68.4890    1.9730 C.2    22  GLN22       0.2608
     34  OE1      -17.9800   68.1920    0.9010 O.2    22  GLN22      -0.2717
     35  NE2      -16.1670   68.5190    2.1570 N.am   22  GLN22      -0.0878
     36  N        -25.7100   69.0920   -0.2620 N.3    26  ILE26      -0.1245
     37  CA       -25.5240   67.7260   -0.7460 C.3    26  ILE26       0.1561
     38  C        -26.4280   66.7450    0.0090 C.2    26  ILE26       0.2260
     39  O        -26.7140   66.9360    1.1900 O.2    26  ILE26      -0.2867
     40  CB       -24.0650   67.2610   -0.6420 C.3    26  ILE26       0.0252
     41  CG1      -23.5100   67.5480    0.7440 C.3    26  ILE26       0.0019
     42  CG2      -23.2200   67.9290   -1.7290 C.3    26  ILE26       0.0019
     43  CD1      -22.1090   67.0130    0.9280 C.3    26  ILE26       0.0001
     44  N        -24.4970   61.5980   -1.7090 N.3    30  TRP30      -0.1241
     45  CA       -23.0860   61.9270   -1.5280 C.3    30  TRP30       0.1605
     46  C        -22.4590   61.1600   -0.3600 C.2    30  TRP30       0.2264
     47  O        -21.2700   61.3130   -0.0950 O.2    30  TRP30      -0.2867
     48  CB       -22.9020   63.4360   -1.3150 C.3    30  TRP30       0.0550
     49  CG       -22.7080   64.2320   -2.5800 C.ar   30  TRP30       0.0003
     50  CD1      -21.5420   64.7960   -3.0210 C.ar   30  TRP30       0.0946
     51  CD2      -23.7140   64.5910   -3.5380 C.ar   30  TRP30       0.0152
     52  NE1      -21.7550   65.4700   -4.2060 N.ar   30  TRP30      -0.2442
     53  CE2      -23.0780   65.3660   -4.5440 C.ar   30  TRP30       0.0810
     54  CE3      -25.0890   64.3380   -3.6450 C.ar   30  TRP30       0.0012
     55  CZ2      -23.7730   65.8880   -5.6460 C.ar   30  TRP30       0.0191
     56  CZ3      -25.7820   64.8580   -4.7420 C.ar   30  TRP30       0.0001
     57  CH2      -25.1170   65.6250   -5.7290 C.ar   30  TRP30       0.0015
     58  N        -19.4420   57.4980   -1.3090 N.3    33  GLY33      -0.1210
     59  CA       -17.9870   57.4610   -1.3100 C.3    33  GLY33       0.1956
     60  C        -17.3300   56.9910   -0.0170 C.2    33  GLY33       0.2612
     61  O        -16.3510   56.2370   -0.0500 O.2    33  GLY33      -0.2717
     62  N        -17.8460   57.4500    1.1220 N.am   34  SER34      -0.1952
     63  CA       -17.3540   56.9940    2.4120 C.3    34  SER34       0.1924
     64  C        -17.6720   55.5110    2.5950 C.2    34  SER34       0.2314
     65  O        -16.8080   54.7470    3.0360 O.2    34  SER34      -0.2863
     66  CB       -17.9700   57.8170    3.5450 C.3    34  SER34       0.2116
     67  OG       -19.3890   57.7910    3.4850 O.3    34  SER34      -0.2180
     68  N        -15.0330   53.5460    0.8750 N.3    37  GLY37      -0.1225
     69  CA       -13.7990   53.4590    1.6360 C.3    37  GLY37       0.1811
     70  C        -13.9480   52.3960    2.7120 C.2    37  GLY37       0.2280
     71  O        -13.0910   51.5360    2.8590 O.2    37  GLY37      -0.2866
     72  N        -13.7070   48.9990    1.1920 N.3    40  LEU40      -0.1231
     73  CA       -12.3310   48.6640    0.8760 C.3    40  LEU40       0.1693
     74  C        -11.6270   48.1520    2.1300 C.2    40  LEU40       0.2591
     75  O        -10.9720   47.0990    2.0920 O.2    40  LEU40      -0.2718
     76  CB       -11.6040   49.8870    0.3030 C.3    40  LEU40       0.0284
     77  CG       -10.2020   49.6150   -0.2360 C.3    40  LEU40       0.0019
     78  CD1      -10.2460   48.5830   -1.3490 C.3    40  LEU40       0.0001
     79  CD2       -9.6140   50.9190   -0.7340 C.3    40  LEU40       0.0001
     80  N        -11.9180   48.7920    3.2640 N.am   41  VAL41      -0.1980
     81  CA       -11.3500   48.3690    4.5430 C.3    41  VAL41       0.1595
     82  C        -11.8660   46.9870    4.9660 C.2    41  VAL41       0.2287
     83  O        -11.0630   46.0990    5.2270 O.2    41  VAL41      -0.2864
     84  CB       -11.6310   49.4090    5.6800 C.3    41  VAL41       0.0276
     85  CG1      -11.2120   48.8300    7.0430 C.3    41  VAL41       0.0022
     86  CG2      -10.8740   50.7230    5.4040 C.3    41  VAL41       0.0022
     87  N        -10.1130   44.2810    2.8720 N.3    44  ILE44      -0.1231
     88  CA        -8.7030   44.1010    3.1610 C.3    44  ILE44       0.1692
     89  C         -8.4760   43.4130    4.5130 C.2    44  ILE44       0.2591
     90  O         -7.7340   42.4210    4.5980 O.2    44  ILE44      -0.2718
     91  CB        -7.9750   45.4570    3.0870 C.3    44  ILE44       0.0266
     92  CG1       -7.8430   45.8660    1.6130 C.3    44  ILE44       0.0019
     93  CG2       -6.6140   45.3830    3.7760 C.3    44  ILE44       0.0020
     94  CD1       -6.9830   47.1120    1.3650 C.3    44  ILE44       0.0001
     95  N         -9.1720   43.8830    5.5450 N.am   45  VAL45      -0.1980
     96  CA        -9.0320   43.3060    6.8750 C.3    45  VAL45       0.1595
     97  C         -9.4430   41.8160    6.9000 C.2    45  VAL45       0.2287
     98  O         -8.6350   40.9630    7.2920 O.2    45  VAL45      -0.2864
     99  CB        -9.8590   44.1020    7.9120 C.3    45  VAL45       0.0276
    100  CG1       -9.8260   43.3880    9.2610 C.3    45  VAL45       0.0022
    101  CG2       -9.3050   45.5330    8.0490 C.3    45  VAL45       0.0022
    102  N         -6.9520   39.5240    4.8790 N.3    48  ILE48      -0.1231
    103  CA        -5.6680   39.2670    5.5010 C.3    48  ILE48       0.1692
    104  C         -5.8160   38.1930    6.5780 C.2    48  ILE48       0.2592
    105  O         -5.0200   37.2500    6.6290 O.2    48  ILE48      -0.2718
    106  CB        -5.0910   40.5720    6.0930 C.3    48  ILE48       0.0266
    107  CG1       -4.5980   41.4670    4.9480 C.3    48  ILE48       0.0019
    108  CG2       -3.9670   40.2710    7.1030 C.3    48  ILE48       0.0020
    109  CD1       -4.2360   42.8650    5.3720 C.3    48  ILE48       0.0001
    110  N         -6.8880   38.2690    7.3650 N.am   49  PHE49      -0.1976
    111  CA        -7.0980   37.2870    8.4230 C.3    49  PHE49       0.1639
    112  C         -7.4040   35.9060    7.8480 C.2    49  PHE49       0.2290
    113  O         -6.9480   34.8980    8.3790 O.2    49  PHE49      -0.2864
    114  CB        -8.2200   37.7340    9.3800 C.3    49  PHE49       0.0560
    115  CG        -7.7510   38.6600   10.4780 C.ar   49  PHE49      -0.0200
    116  CD1       -7.7700   40.0390   10.3010 C.ar   49  PHE49      -0.0042
    117  CD2       -7.2360   38.1510   11.6650 C.ar   49  PHE49      -0.0042
    118  CE1       -7.2800   40.8990   11.2870 C.ar   49  PHE49      -0.0003
    119  CE2       -6.7360   39.0040   12.6600 C.ar   49  PHE49      -0.0003
    120  CZ        -6.7580   40.3780   12.4710 C.ar   49  PHE49      -0.0000
    121  N         -4.1980   34.0390    6.3840 N.3    52  MET52      -0.1245
    122  CA        -3.4810   33.3440    7.4370 C.3    52  MET52       0.1570
    123  C         -3.8090   31.8490    7.4790 C.2    52  MET52       0.2261
    124  O         -3.0060   31.0570    7.9300 O.2    52  MET52      -0.2867
    125  CB        -3.8270   33.9880    8.7750 C.3    52  MET52       0.0387
    126  CG        -3.2220   35.3510    8.9700 C.3    52  MET52       0.0595
    127  SD        -3.6320   35.9720   10.5880 S.3    52  MET52      -0.1393
    128  CE        -2.9690   37.6290   10.4840 C.3    52  MET52       0.0692
    129  N         -4.1260   46.9690   -2.7070 N.3   188  PHE188     -0.1241
    130  CA        -3.2350   48.0650   -2.3230 C.3   188  PHE188      0.1605
    131  C         -2.9940   49.0940   -3.4320 C.2   188  PHE188      0.2264
    132  O         -2.8020   50.2720   -3.1500 O.2   188  PHE188     -0.2867
    133  CB        -1.8960   47.5200   -1.8270 C.3   188  PHE188      0.0534
    134  CG        -2.0040   46.7270   -0.5680 C.ar  188  PHE188     -0.0203
    135  CD1       -1.9650   45.3410   -0.5990 C.ar  188  PHE188     -0.0042
    136  CD2       -2.2060   47.3650    0.6540 C.ar  188  PHE188     -0.0042
    137  CE1       -2.1360   44.5960    0.5730 C.ar  188  PHE188     -0.0003
    138  CE2       -2.3730   46.6250    1.8290 C.ar  188  PHE188     -0.0003
    139  CZ        -2.3410   45.2430    1.7840 C.ar  188  PHE188     -0.0000
    140  N         -6.0630   51.1480   -3.2970 N.3   191  ALA191     -0.1245
    141  CA        -5.9050   52.1130   -2.2060 C.3   191  ALA191      0.1562
    142  C         -5.1140   53.3560   -2.6310 C.2   191  ALA191      0.2260
    143  O         -5.4880   54.4820   -2.2890 O.2   191  ALA191     -0.2867
    144  CB        -5.2270   51.4420   -0.9850 C.3   191  ALA191      0.0290
    145  N         -7.3540   55.3840   -4.8820 N.3   194  VAL194     -0.1231
    146  CA        -8.3420   56.1040   -4.0940 C.3   194  VAL194      0.1692
    147  C         -7.7860   57.4130   -3.5300 C.2   194  VAL194      0.2591
    148  O         -8.4730   58.4310   -3.5330 O.2   194  VAL194     -0.2718
    149  CB        -8.8910   55.2270   -2.9460 C.3   194  VAL194      0.0266
    150  CG1       -9.6680   56.0850   -1.9330 C.3   194  VAL194      0.0020
    151  CG2       -9.7940   54.1500   -3.5230 C.3   194  VAL194      0.0020
    152  N         -6.5190   57.4010   -3.1310 N.am  195  ILE195     -0.1980
    153  CA        -5.8410   58.6020   -2.6560 C.3   195  ILE195      0.1595
    154  C         -5.7270   59.6250   -3.7920 C.2   195  ILE195      0.2287
    155  O         -5.9800   60.8110   -3.5880 O.2   195  ILE195     -0.2864
    156  CB        -4.4310   58.2560   -2.1170 C.3   195  ILE195      0.0276
    157  CG1       -4.5490   57.6260   -0.7320 C.3   195  ILE195      0.0022
    158  CG2       -3.5400   59.5040   -2.0600 C.3   195  ILE195      0.0022
    159  CD1       -3.2500   56.9940   -0.2560 C.3   195  ILE195      0.0001
    160  N         -9.1010   61.0930   -4.2190 N.3   198  LEU198     -0.1245
    161  CA        -9.4210   62.1090   -3.2160 C.3   198  LEU198      0.1561
    162  C         -8.6030   63.3920   -3.4030 C.2   198  LEU198      0.2260
    163  O         -9.0750   64.4790   -3.0980 O.2   198  LEU198     -0.2867
    164  CB        -9.2270   61.5570   -1.8000 C.3   198  LEU198      0.0270
    165  CG       -10.2060   60.4580   -1.3680 C.3   198  LEU198      0.0019
    166  CD1       -9.6290   59.6990   -0.1980 C.3   198  LEU198      0.0001
    167  CD2      -11.5500   61.0460   -0.9970 C.3   198  LEU198      0.0001
    168  N        -10.4900   65.3050   -5.9980 N.3   201  LEU201     -0.1231
    169  CA       -11.7080   65.7530   -5.3490 C.3   201  LEU201      0.1693
    170  C        -11.4650   67.0200   -4.5310 C.2   201  LEU201      0.2592
    171  O        -12.2990   67.9300   -4.5180 O.2   201  LEU201     -0.2718
    172  CB       -12.2560   64.6480   -4.4330 C.3   201  LEU201      0.0284
    173  CG       -13.4480   65.0560   -3.5540 C.3   201  LEU201      0.0019
    174  CD1      -14.6540   65.3820   -4.4320 C.3   201  LEU201      0.0001
    175  CD2      -13.7790   63.9430   -2.5780 C.3   201  LEU201      0.0001
    176  N        -10.3200   67.0650   -3.8560 N.am  202  HIS202     -0.1976
    177  CA       -10.0010   68.1250   -2.8990 C.3   202  HIS202      0.1656
    178  C         -9.7820   69.4860   -3.5640 C.2   202  HIS202      0.2291
    179  O        -10.1830   70.5100   -3.0140 O.2   202  HIS202     -0.2864
    180  CB        -8.7540   67.7370   -2.0910 C.3   202  HIS202      0.0771
    181  CG        -8.4460   68.6610   -0.9530 C.ar  202  HIS202      0.0820
    182  ND1       -9.0990   68.5930    0.2610 N.ar  202  HIS202     -0.2267
    183  CD2       -7.4960   69.6190   -0.8160 C.ar  202  HIS202      0.1154
    184  CE1       -8.5590   69.4610    1.0980 C.ar  202  HIS202      0.1986
    185  NE2       -7.5850   70.0990    0.4690 N.ar  202  HIS202     -0.2212
    186  N        -13.4770   70.3740   -4.7580 N.3   205  GLY205     -0.1210
    187  CA       -14.5820   70.0650   -3.8730 C.3   205  GLY205      0.1956
    188  C        -15.7050   69.3120   -4.5590 C.2   205  GLY205      0.2612
    189  O        -15.6910   69.1030   -5.7720 O.2   205  GLY205     -0.2717
    190  N        -16.6360   68.8350   -3.7510 N.am  206  SER206     -0.1952
    191  CA       -17.8200   68.1570   -4.2320 C.3   206  SER206      0.1924
    192  C        -18.7040   69.1080   -5.0170 C.2   206  SER206      0.2314
    193  O        -18.6720   70.3250   -4.8090 O.2   206  SER206     -0.2863
    194  CB       -18.6190   67.5990   -3.0520 C.3   206  SER206      0.2116
    195  OG       -17.8480   66.6590   -2.3340 O.3   206  SER206     -0.2180
    196  N        -16.9720   69.7820    7.0710 N.3   221  MET221     -0.1245
    197  CA       -17.1790   68.3440    7.1110 C.3   221  MET221      0.1570
    198  C        -17.4600   67.9200    8.5410 C.2   221  MET221      0.2261
    199  O        -18.4590   67.2570    8.8080 O.2   221  MET221     -0.2867
    200  CB       -15.9460   67.6050    6.5960 C.3   221  MET221      0.0387
    201  CG       -16.1020   66.1010    6.5670 C.3   221  MET221      0.0595
    202  SD       -17.0400   65.5600    5.1320 S.3   221  MET221     -0.1393
    203  CE       -15.8430   65.9280    3.8620 C.3   221  MET221      0.0692
    204  N        -21.3070   66.2970    8.3530 N.3   225  PHE225     -0.1227
    205  CA       -21.2360   65.1700    7.4470 C.3   225  PHE225      0.1736
    206  C        -20.5320   63.9540    8.0350 C.2   225  PHE225      0.2595
    207  O        -20.7880   62.8200    7.6100 O.2   225  PHE225     -0.2718
    208  CB       -20.5910   65.6040    6.1380 C.3   225  PHE225      0.0547
    209  CG       -21.3850   66.6480    5.4110 C.ar  225  PHE225     -0.0202
    210  CD1      -21.0560   67.9940    5.5270 C.ar  225  PHE225     -0.0042
    211  CD2      -22.5160   66.2930    4.6820 C.ar  225  PHE225     -0.0042
    212  CE1      -21.8360   68.9760    4.9270 C.ar  225  PHE225     -0.0003
    213  CE2      -23.3130   67.2680    4.0810 C.ar  225  PHE225     -0.0003
    214  CZ       -22.9690   68.6150    4.2010 C.ar  225  PHE225     -0.0000
    215  N        -19.7740   64.1630    9.1060 N.am  226  ILE226     -0.1980
    216  CA       -19.2380   63.0340    9.8550 C.3   226  ILE226      0.1595
    217  C        -20.3970   62.2230   10.4450 C.2   226  ILE226      0.2287
    218  O        -20.5200   61.0260   10.1870 O.2   226  ILE226     -0.2864
    219  CB       -18.2850   63.5060   10.9790 C.3   226  ILE226      0.0276
    220  CG1      -16.9940   64.0720   10.3650 C.3   226  ILE226      0.0022
    221  CG2      -17.9870   62.3570   11.9490 C.3   226  ILE226      0.0022
    222  CD1      -16.0450   63.0270    9.8030 C.3   226  ILE226      0.0001
    223  N        -22.6620   60.8080    7.6960 N.3   229  ASP229     -0.1239
    224  CA       -22.0500   59.5820    7.1640 C.3   229  ASP229      0.1674
    225  C        -22.3810   58.3950    8.0570 C.2   229  ASP229      0.2266
    226  O        -22.6650   57.2980    7.5670 O.2   229  ASP229     -0.2867
    227  CB       -20.5210   59.7100    7.0620 C.3   229  ASP229      0.1410
    228  CG       -20.0630   60.4450    5.8040 C.2   229  ASP229      0.3668
    229  OD1      -20.7960   60.4510    4.7840 O.co2 229  ASP229     -0.2456
    230  OD2      -18.9510   61.0170    5.8290 O.co2 229  ASP229     -0.2456
@<TRIPOS>BOND
     1   168   169    1
     2   189   188    2
     3    57    55   ar
     4    57    56   ar
     5    55    53   ar
     6   169   170    1
     7   169   172    1
     8   192   193    2
     9   192   191    1
    10   145   146    1
    11   186   187    1
    12    56    54   ar
    13   188   187    1
    14   188   190   am
    15    53    52   ar
    16    53    51   ar
    17   170   171    2
    18   170   176   am
    19   172   173    1
    20   174   173    1
    21   191   190    1
    22   191   194    1
    23   160   161    1
    24    52    50   ar
    25   146   147    1
    26   146   149    1
    27   176   177    1
    28   154   155    2
    29   154   153    1
    30    54    51   ar
    31   178   179    2
    32   178   177    1
    33   173   175    1
    34    51    49   ar
    35   148   147    2
    36   147   152   am
    37   151   149    1
    38   131   132    2
    39   131   130    1
    40   162   161    1
    41   162   163    2
    42   140   141    1
    43   161   164    1
    44   152   153    1
    45   194   195    1
    46    50    49   ar
    47   149   150    1
    48   177   180    1
    49   129   130    1
    50   153   156    1
    51   142   143    2
    52   142   141    1
    53    49    48    1
    54   130   133    1
    55   141   144    1
    56   156   158    1
    57   156   157    1
    58   180   181    1
    59   133   134    1
    60   164   165    1
    61    42    40    1
    62    44    45    1
    63    45    48    1
    64    45    46    1
    65   165   167    1
    66   165   166    1
    67    78    77    1
    68    59    58    1
    69    59    60    1
    70   181   183   ar
    71   181   182   ar
    72    12    11    1
    73   183   185   ar
    74    37    40    1
    75    37    36    1
    76    37    38    1
    77    79    77    1
    78   157   159    1
    79    40    41    1
    80   135   134   ar
    81   135   137   ar
    82   134   136   ar
    83    46    47    2
    84    77    76    1
    85    61    60    2
    86    60    62   am
    87    38    39    2
    88    10    11   ar
    89    10     8   ar
    90   182   184   ar
    91    11     9   ar
    92    76    73    1
    93   185   184   ar
    94   137   139   ar
    95   136   138   ar
    96    41    43    1
    97    68    69    1
    98    73    72    1
    99    73    74    1
   100    34    33    2
   101    62    63    1
   102    94    92    1
   103     8     6   ar
   104     9     7   ar
   105    29    28    1
   106    29    30    2
   107    92    91    1
   108    69    70    1
   109   139   138   ar
   110    28    31    1
   111    28    27    1
   112    33    35   am
   113    33    32    1
   114    75    74    2
   115    74    80   am
   116    63    64    1
   117    63    66    1
   118     6     7   ar
   119     6     5    1
   120    64    65    2
   121    26    25    1
   122    31    32    1
   123    70    71    2
   124    87    88    1
   125    91    88    1
   126    91    93    1
   127    88    89    1
   128    80    81    1
   129    67    66    1
   130     5     2    1
   131   203   202    1
   132    25    22    1
   133   213   214   ar
   134   213   211   ar
   135   214   212   ar
   136    23    22    1
   137    23    24    2
   138     2     1    1
   139     2     3    1
   140     4     3    2
   141    89    90    2
   142    89    95   am
   143    22    21    1
   144    81    82    1
   145    81    84    1
   146   211   209   ar
   147   229   228   ar
   148   102   103    1
   149   212   210   ar
   150   107   109    1
   151   107   106    1
   152    82    83    2
   153     3    13   am
   154   202   201    1
   155    86    84    1
   156   209   210   ar
   157   209   208    1
   158   103   106    1
   159   103   104    1
   160    95    96    1
   161    84    85    1
   162   228   230   ar
   163   228   227    1
   164   106   108    1
   165   208   205    1
   166    13    14    1
   167   121   122    1
   168   201   200    1
   169   104   105    2
   170   104   110   am
   171   200   197    1
   172    18    20    1
   173    18    17    1
   174    96    97    1
   175    96    99    1
   176    97    98    2
   177   227   224    1
   178   196   197    1
   179   197   198    1
   180    14    17    1
   181    14    15    1
   182   224   223    1
   183   224   225    1
   184   110   111    1
   185   122   123    1
   186   122   125    1
   187   205   206    1
   188   205   204    1
   189   123   124    2
   190   226   225    2
   191   207   206    2
   192    17    19    1
   193   112   113    2
   194   112   111    1
   195    99   101    1
   196    99   100    1
   197   206   215   am
   198    15    16    2
   199   111   114    1
   200   198   199    2
   201   125   126    1
   202   126   127    1
   203   215   216    1
   204   114   115    1
   205   222   220    1
   206   216   217    1
   207   216   219    1
   208   218   217    2
   209   116   115   ar
   210   116   118   ar
   211   220   219    1
   212   115   117   ar
   213   128   127    1
   214   219   221    1
   215   118   120   ar
   216   117   119   ar
   217   120   119   ar
