@<TRIPOS>MOLECULE
tmp/1f06B01.pdb
 140 137 0 0 0
SMALL
GASTEIGER

@<TRIPOS>ATOM
      1  N         19.6900   30.0810   31.8520 N.3    88  THR88      -0.1218
      2  CA        18.5210   30.8230   32.3130 C.3    88  THR88       0.1862
      3  C         18.8000   31.5050   33.6540 C.2    88  THR88       0.2287
      4  O         17.8760   31.7730   34.4190 O.2    88  THR88      -0.2866
      5  CB        17.2660   29.9080   32.4410 C.3    88  THR88       0.1770
      6  OG1       17.4890   28.8960   33.4250 O.3    88  THR88      -0.2211
      7  CG2       16.9390   29.2400   31.1150 C.3    88  THR88       0.0375
      8  N         19.1120   33.4860   36.7940 N.3    90  ASP90      -0.1239
      9  CA        18.1440   34.4370   37.3170 C.3    90  ASP90       0.1674
     10  C         18.5290   35.3900   38.4330 C.2    90  ASP90       0.2266
     11  O         17.6570   36.0340   39.0120 O.2    90  ASP90      -0.2867
     12  CB        16.8650   33.6990   37.7110 C.3    90  ASP90       0.1410
     13  CG        17.0740   32.6800   38.8410 C.2    90  ASP90       0.3668
     14  OD1       18.1430   32.6560   39.4930 O.co2  90  ASP90      -0.2456
     15  OD2       16.1340   31.8990   39.0930 O.co2  90  ASP90      -0.2456
     16  N         19.3750   38.5030   39.1000 N.3    92  HIS92      -0.1241
     17  CA        19.3850   39.8230   38.4710 C.3    92  HIS92       0.1621
     18  C         20.5600   40.7190   38.8410 C.2    92  HIS92       0.2264
     19  O         21.2300   41.2580   37.9590 O.2    92  HIS92      -0.2867
     20  CB        18.0710   40.5580   38.7380 C.3    92  HIS92       0.0745
     21  CG        16.8760   39.8910   38.1400 C.ar   92  HIS92       0.0817
     22  ND1       16.4510   40.1300   36.8480 N.ar   92  HIS92      -0.2268
     23  CD2       16.0150   38.9790   38.6540 C.ar   92  HIS92       0.1154
     24  CE1       15.3850   39.3940   36.5940 C.ar   92  HIS92       0.1986
     25  NE2       15.1010   38.6850   37.6720 N.ar   92  HIS92      -0.2212
     26  N         11.6800   33.2860   31.1340 N.3   119  TRP119     -0.1227
     27  CA        10.5700   34.2380   31.1240 C.3   119  TRP119      0.1737
     28  C         10.8530   35.4590   32.0010 C.2   119  TRP119      0.2595
     29  O         10.2940   36.5380   31.7820 O.2   119  TRP119     -0.2718
     30  CB         9.2320   33.5840   31.4340 C.3   119  TRP119      0.0564
     31  CG         9.0970   32.8770   32.7370 C.ar  119  TRP119      0.0003
     32  CD1        9.4960   31.6060   33.0240 C.ar  119  TRP119      0.0946
     33  CD2        8.4340   33.3660   33.9130 C.ar  119  TRP119      0.0152
     34  NE1        9.1130   31.2610   34.2990 N.ar  119  TRP119     -0.2442
     35  CE2        8.4550   32.3230   34.8670 C.ar  119  TRP119      0.0810
     36  CE3        7.8090   34.5790   34.2470 C.ar  119  TRP119      0.0012
     37  CZ2        7.8930   32.4580   36.1430 C.ar  119  TRP119      0.0191
     38  CZ3        7.2390   34.7140   35.5210 C.ar  119  TRP119      0.0001
     39  CH2        7.2880   33.6550   36.4490 C.ar  119  TRP119      0.0015
     40  N         11.7510   35.2900   32.9730 N.am  120  ASP120     -0.1960
     41  CA        12.2130   36.3820   33.8380 C.3   120  ASP120      0.1825
     42  C         13.3830   35.9680   34.7230 C.2   120  ASP120      0.2464
     43  O         13.2100   35.3380   35.7690 O.2   120  ASP120     -0.2730
     44  CB        11.0930   36.9610   34.6870 C.3   120  ASP120      0.1450
     45  CG        11.4350   38.3520   35.2130 C.2   120  ASP120      0.3671
     46  OD1       12.5030   38.9090   34.8780 O.co2 120  ASP120     -0.2456
     47  OD2       10.6070   38.8950   35.9670 O.co2 120  ASP120     -0.2456
     48  N         14.6110   36.3280   34.3090 N.am  121  PRO121     -0.2727
     49  CA        14.9140   37.0790   33.0810 C.3   121  PRO121      0.1402
     50  C         14.5330   36.3440   31.7850 C.2   121  PRO121      0.2269
     51  O         14.3190   35.1340   31.7830 O.2   121  PRO121     -0.2865
     52  CB        16.4230   37.3150   33.2040 C.3   121  PRO121      0.0296
     53  CG        16.8840   36.0920   33.9220 C.3   121  PRO121      0.0237
     54  CD        15.8560   36.0310   35.0360 C.3   121  PRO121      0.0939
     55  N          5.1110   38.3880   39.8110 N.3   144  TRP144     -0.1241
     56  CA         5.2960   36.9650   39.5780 C.3   144  TRP144      0.1605
     57  C          4.3900   36.2340   40.5410 C.2   144  TRP144      0.2264
     58  O          4.2940   36.6120   41.7050 O.2   144  TRP144     -0.2867
     59  CB         6.7310   36.5250   39.8870 C.3   144  TRP144      0.0550
     60  CG         7.8000   37.4200   39.3780 C.ar  144  TRP144      0.0003
     61  CD1        8.2020   37.5610   38.0830 C.ar  144  TRP144      0.0946
     62  CD2        8.6390   38.2760   40.1600 C.ar  144  TRP144      0.0152
     63  NE1        9.2490   38.4500   38.0130 N.ar  144  TRP144     -0.2442
     64  CE2        9.5390   38.9090   39.2660 C.ar  144  TRP144      0.0810
     65  CE3        8.7230   38.5760   41.5280 C.ar  144  TRP144      0.0012
     66  CZ2       10.5050   39.8180   39.6990 C.ar  144  TRP144      0.0191
     67  CZ3        9.6920   39.4790   41.9550 C.ar  144  TRP144      0.0001
     68  CH2       10.5670   40.0880   41.0440 C.ar  144  TRP144      0.0015
     69  N          8.7240   28.9370   42.2020 N.3   149  SER149     -0.1202
     70  CA         9.9580   29.4860   41.6510 C.3   149  SER149      0.2020
     71  C         11.0470   28.4070   41.7340 C.2   149  SER149      0.2619
     72  O         11.4500   28.0070   42.8280 O.2   149  SER149     -0.2717
     73  CB        10.4020   30.7170   42.4370 C.3   149  SER149      0.2103
     74  OG        11.6780   31.1520   42.0010 O.3   149  SER149     -0.2182
     75  N         11.5080   27.9370   40.5740 N.am  150  GLN150     -0.1965
     76  CA        12.5460   26.9090   40.5080 C.3   150  GLN150      0.1733
     77  C         13.8680   27.3620   41.1260 C.2   150  GLN150      0.2617
     78  O         14.5320   26.5780   41.8010 O.2   150  GLN150     -0.2715
     79  CB        12.7880   26.4780   39.0640 C.3   150  GLN150      0.0408
     80  CG        11.6290   25.7540   38.4250 C.3   150  GLN150      0.0908
     81  CD        11.9240   25.3910   36.9940 C.2   150  GLN150      0.2608
     82  OE1       12.7610   24.5280   36.7160 O.2   150  GLN150     -0.2717
     83  NE2       11.2570   26.0720   36.0690 N.am  150  GLN150     -0.0878
     84  N         14.2520   28.6110   40.8660 N.am  151  GLY151     -0.1940
     85  CA        15.4850   29.1630   41.4070 C.3   151  GLY151      0.2014
     86  C         15.4980   29.1990   42.9260 C.2   151  GLY151      0.2638
     87  O         16.4850   28.8120   43.5460 O.2   151  GLY151     -0.2714
     88  N         14.4000   29.6600   43.5210 N.am  152  HIS152     -0.1973
     89  CA        14.2620   29.7370   44.9730 C.3   152  HIS152      0.1656
     90  C         14.1440   28.3610   45.6090 C.2   152  HIS152      0.2291
     91  O         14.5950   28.1600   46.7280 O.2   152  HIS152     -0.2864
     92  CB        13.0390   30.5640   45.3470 C.3   152  HIS152      0.0771
     93  CG        13.1920   32.0170   45.0440 C.ar  152  HIS152      0.0820
     94  ND1       13.6000   32.9350   45.9840 N.ar  152  HIS152     -0.2267
     95  CD2       13.0230   32.7020   43.8880 C.ar  152  HIS152      0.1154
     96  CE1       13.6870   34.1260   45.4210 C.ar  152  HIS152      0.1986
     97  NE2       13.3430   34.0130   44.1530 N.ar  152  HIS152     -0.2212
     98  N          5.8850   32.0720   45.1600 N.3   169  THR169     -0.1218
     99  CA         5.9000   33.5280   45.1190 C.3   169  THR169      0.1862
    100  C          4.4660   34.0250   45.0600 C.2   169  THR169      0.2287
    101  O          3.7230   33.6770   44.1480 O.2   169  THR169     -0.2866
    102  CB         6.6620   34.0310   43.9070 C.3   169  THR169      0.1770
    103  OG1        7.9940   33.5100   43.9500 O.3   169  THR169     -0.2211
    104  CG2        6.7110   35.5620   43.9010 C.3   169  THR169      0.0375
    105  N          7.2390   35.5950   50.0720 N.3   195  ARG195     -0.1245
    106  CA         7.9340   34.3560   49.7280 C.3   195  ARG195      0.1563
    107  C          7.5240   33.2610   50.7070 C.2   195  ARG195      0.2260
    108  O          7.7710   33.3470   51.9130 O.2   195  ARG195     -0.2867
    109  CB         9.4440   34.5560   49.7200 C.3   195  ARG195      0.0307
    110  CG         9.8650   35.8790   49.1100 C.3   195  ARG195      0.0489
    111  CD        11.0850   35.7470   48.2160 C.3   195  ARG195      0.2205
    112  NE        10.6840   35.1940   46.9310 N.pl3 195  ARG195     -0.0865
    113  CZ        10.9210   35.7560   45.7540 C.cat 195  ARG195      0.5346
    114  NH1       11.5830   36.8950   45.6580 N.pl3 195  ARG195      0.1354
    115  NH2       10.4000   35.2180   44.6740 N.pl3 195  ARG195      0.1354
    116  N          3.2330   28.7260   37.3950 N.3   244  HIS244     -0.1241
    117  CA         3.7570   30.0660   37.6450 C.3   244  HIS244      0.1621
    118  C          3.3230   31.0010   36.5220 C.2   244  HIS244      0.2264
    119  O          2.5750   30.6090   35.6250 O.2   244  HIS244     -0.2867
    120  CB         5.2870   30.0340   37.7540 C.3   244  HIS244      0.0745
    121  CG         5.8490   31.0140   38.7370 C.ar  244  HIS244      0.0817
    122  ND1        5.1070   32.0550   39.2590 N.ar  244  HIS244     -0.2268
    123  CD2        7.0680   31.0940   39.3210 C.ar  244  HIS244      0.1154
    124  CE1        5.8480   32.7270   40.1250 C.ar  244  HIS244      0.1986
    125  NE2        7.0390   32.1640   40.1800 N.ar  244  HIS244     -0.2212
    126  N          6.2080   25.6660   34.9730 N.3   270  ASN270     -0.1240
    127  CA         7.3320   26.5930   34.8920 C.3   270  ASN270      0.1653
    128  C          8.5110   26.0630   34.0590 C.2   270  ASN270      0.2266
    129  O          8.8720   26.6780   33.0590 O.2   270  ASN270     -0.2867
    130  CB         7.7650   26.9810   36.3230 C.3   270  ASN270      0.1155
    131  CG         8.7490   28.1470   36.3720 C.2   270  ASN270      0.2627
    132  OD1        9.2990   28.5690   35.3570 O.2   270  ASN270     -0.2716
    133  ND2        8.9780   28.6660   37.5710 N.am  270  ASN270     -0.0877
    134  N         10.0660   27.6170   30.4560 N.3   274  THR274     -0.1218
    135  CA        11.4450   28.0960   30.5450 C.3   274  THR274      0.1862
    136  C         12.3160   27.3720   29.5220 C.2   274  THR274      0.2287
    137  O         13.1190   27.9890   28.8240 O.2   274  THR274     -0.2866
    138  CB        12.0180   27.8920   31.9460 C.3   274  THR274      0.1770
    139  OG1       11.2140   28.6090   32.8840 O.3   274  THR274     -0.2211
    140  CG2       13.4460   28.4060   32.0110 C.3   274  THR274      0.0375
@<TRIPOS>BOND
     1   137   136    2
     2   136   135    1
     3   134   135    1
     4   135   138    1
     5     7     5    1
     6    27    26    1
     7    27    30    1
     8    27    28    1
     9    30    31    1
    10    29    28    2
    11    51    50    2
    12    50    49    1
    13     1     2    1
    14   138   140    1
    15   138   139    1
    16    28    40   am
    17     2     5    1
    18     2     3    1
    19     5     6    1
    20    31    32   ar
    21    31    33   ar
    22    40    41    1
    23    32    34   ar
    24   129   128    2
    25    49    52    1
    26    49    48    1
    27    52    53    1
    28     3     4    2
    29    41    44    1
    30    41    42    1
    31    33    36   ar
    32    33    35   ar
    33    53    54    1
    34   128   127    1
    35    36    38   ar
    36    34    35   ar
    37    48    42   am
    38    48    54    1
    39    44    45    1
    40    42    43    2
    41    35    37   ar
    42    46    45   ar
    43   127   126    1
    44   127   130    1
    45    45    47   ar
    46   132   131    2
    47    38    39   ar
    48   119   118    2
    49    83    81   am
    50    37    39   ar
    51   130   131    1
    52   131   133   am
    53   118   117    1
    54    24    22   ar
    55    24    25   ar
    56    82    81    2
    57     8     9    1
    58    22    21   ar
    59    81    80    1
    60     9    12    1
    61     9    10    1
    62   116   117    1
    63   117   120    1
    64    25    23   ar
    65    12    13    1
    66   120   121    1
    67    19    18    2
    68    63    61   ar
    69    63    64   ar
    70    61    60   ar
    71    21    23   ar
    72    21    20    1
    73    80    79    1
    74    10    11    2
    75    17    20    1
    76    17    18    1
    77    17    16    1
    78   121   122   ar
    79   121   123   ar
    80    13    15   ar
    81    13    14   ar
    82    79    76    1
    83   122   124   ar
    84    64    66   ar
    85    64    62   ar
    86   123   125   ar
    87    60    59    1
    88    60    62   ar
    89    56    55    1
    90    56    59    1
    91    56    57    1
    92    66    68   ar
    93   124   125   ar
    94    62    65   ar
    95    76    75    1
    96    76    77    1
    97    57    58    2
    98    75    71   am
    99    84    77   am
   100    84    85    1
   101    68    67   ar
   102    77    78    2
   103    85    86    1
   104    65    67   ar
   105    70    71    1
   106    70    69    1
   107    70    73    1
   108    71    72    2
   109    74    73    1
   110    86    88   am
   111    86    87    2
   112    88    89    1
   113    95    97   ar
   114    95    93   ar
   115   104   102    1
   116   102   103    1
   117   102    99    1
   118   101   100    2
   119    97    96   ar
   120   115   113    1
   121    89    92    1
   122    89    90    1
   123    93    92    1
   124    93    94   ar
   125   100    99    1
   126    99    98    1
   127    96    94   ar
   128    90    91    2
   129   114   113    1
   130   113   112    2
   131   112   111    1
   132   111   110    1
   133   110   109    1
   134   109   106    1
   135   106   105    1
   136   106   107    1
   137   107   108    2
