@<TRIPOS>MOLECULE
tmp/1f07D00.pdb
 99 93 0 0 0
SMALL
GASTEIGER

@<TRIPOS>ATOM
      1  N         24.2350   61.8110   10.3720 N.3     6  GLU6       -0.1245
      2  CA        24.1690   60.7990   11.4230 C.3     6  GLU6        0.1567
      3  C         23.3780   61.2180   12.6410 C.2     6  GLU6        0.2260
      4  O         23.4330   62.3720   13.0660 O.2     6  GLU6       -0.2867
      5  CB        25.5750   60.4170   11.9000 C.3     6  GLU6        0.0388
      6  CG        25.5960   60.0090   13.3910 C.3     6  GLU6        0.1160
      7  CD        26.9870   59.8090   13.9470 C.2     6  GLU6        0.3649
      8  OE1       27.8980   60.5650   13.5520 O.co2   6  GLU6       -0.2457
      9  OE2       27.1690   58.9120   14.8050 O.co2   6  GLU6       -0.2457
     10  N         23.0970   55.2050   14.2900 N.3    34  THR34      -0.1203
     11  CA        24.0500   54.3070   14.9320 C.3    34  THR34       0.1994
     12  C         23.3460   53.1510   15.6410 C.2    34  THR34       0.2618
     13  O         22.1930   53.2560   16.0830 O.2    34  THR34      -0.2717
     14  CB        24.9660   55.0500   15.9180 C.3    34  THR34       0.1784
     15  OG1       24.1730   55.6060   16.9610 O.3    34  THR34      -0.2211
     16  CG2       25.7430   56.1590   15.1950 C.3    34  THR34       0.0376
     17  N         24.0660   52.0410   15.7370 N.am   35  ASP35      -0.1959
     18  CA        23.5360   50.8180   16.3310 C.3    35  ASP35       0.1840
     19  C         24.3980   50.3210   17.4950 C.2    35  ASP35       0.2622
     20  O         25.5040   49.8210   17.3000 O.2    35  ASP35      -0.2715
     21  CB        23.4430   49.7700   15.2260 C.3    35  ASP35       0.1450
     22  CG        23.0460   48.3950   15.7360 C.2    35  ASP35       0.3671
     23  OD1       22.1910   48.2930   16.6400 O.co2  35  ASP35      -0.2456
     24  OD2       23.5760   47.4070   15.1880 O.co2  35  ASP35      -0.2456
     25  N         23.8750   50.4790   18.7030 N.am   36  HIS36      -0.1973
     26  CA        24.5710   50.0650   19.9160 C.3    36  HIS36       0.1656
     27  C         23.5260   49.5890   20.8810 C.2    36  HIS36       0.2291
     28  O         22.4840   50.2270   21.0320 O.2    36  HIS36      -0.2864
     29  CB        25.3410   51.2380   20.5250 C.3    36  HIS36       0.0771
     30  CG        26.4710   51.7050   19.6680 C.ar   36  HIS36       0.0820
     31  ND1       27.5190   50.8850   19.3180 N.ar   36  HIS36      -0.2267
     32  CD2       26.7000   52.8920   19.0570 C.ar   36  HIS36       0.1154
     33  CE1       28.3490   51.5430   18.5270 C.ar   36  HIS36       0.1986
     34  NE2       27.8740   52.7640   18.3530 N.ar   36  HIS36      -0.2212
     35  N         24.1780   52.8170   10.7010 N.3    61  GLY61      -0.1210
     36  CA        25.5130   53.2680   10.3480 C.3    61  GLY61       0.1956
     37  C         26.4490   53.2750   11.5500 C.2    61  GLY61       0.2611
     38  O         26.6520   54.3180   12.1740 O.2    61  GLY61      -0.2717
     39  N         27.0380   52.1290   11.8860 N.am   62  VAL62      -0.1979
     40  CA        26.8510   50.8680   11.1780 C.3    62  VAL62       0.1595
     41  C         26.4480   49.7940   12.1930 C.2    62  VAL62       0.2287
     42  O         26.6160   49.9620   13.4090 O.2    62  VAL62      -0.2864
     43  CB        28.1630   50.3910   10.5060 C.3    62  VAL62       0.0276
     44  CG1       28.6000   51.3670    9.4230 C.3    62  VAL62       0.0022
     45  CG2       29.2820   50.2700   11.5670 C.3    62  VAL62       0.0022
     46  N         35.5640   56.6960    9.1320 N.3   171  ASN171     -0.1240
     47  CA        35.5520   57.6580   10.2310 C.3   171  ASN171      0.1653
     48  C         36.7570   58.5800   10.1030 C.2   171  ASN171      0.2266
     49  O         37.7820   58.3560   10.7330 O.2   171  ASN171     -0.2867
     50  CB        35.5980   56.9260   11.5810 C.3   171  ASN171      0.1155
     51  CG        34.3320   56.1400   11.8650 C.2   171  ASN171      0.2627
     52  OD1       34.3060   55.2770   12.7450 O.2   171  ASN171     -0.2716
     53  ND2       33.2640   56.4490   11.1380 N.am  171  ASN171     -0.0877
     54  N         32.6300   59.7390    7.0490 N.3   204  TYR204     -0.1227
     55  CA        31.8380   59.7550    8.2690 C.3   204  TYR204      0.1736
     56  C         32.5840   60.7250    9.1850 C.2   204  TYR204      0.2596
     57  O         33.3880   60.3050   10.0250 O.2   204  TYR204     -0.2718
     58  CB        31.8320   58.3590    8.8920 C.3   204  TYR204      0.0548
     59  CG        30.5360   57.9940    9.5690 C.ar  204  TYR204     -0.0200
     60  CD1       29.6940   58.9760   10.0910 C.ar  204  TYR204     -0.0009
     61  CD2       30.1610   56.6570    9.7130 C.ar  204  TYR204     -0.0009
     62  CE1       28.5020   58.6340   10.7380 C.ar  204  TYR204      0.0417
     63  CE2       28.9790   56.3070   10.3560 C.ar  204  TYR204      0.0417
     64  CZ        28.1540   57.2940   10.8650 C.ar  204  TYR204      0.1957
     65  OH        26.9820   56.9460   11.4900 O.3   204  TYR204     -0.2866
     66  N         32.2950   62.0160    9.0330 N.am  205  THR205     -0.1939
     67  CA        32.9990   63.0640    9.7670 C.3   205  THR205      0.2028
     68  C         32.4210   63.5380   11.0840 C.2   205  THR205      0.2642
     69  O         31.2310   63.3880   11.3570 O.2   205  THR205     -0.2714
     70  CB        33.1080   64.3650    8.9210 C.3   205  THR205      0.1808
     71  OG1       31.8210   64.9920    8.8810 O.3   205  THR205     -0.2208
     72  CG2       33.5410   64.0700    7.5060 C.3   205  THR205      0.0379
     73  N         33.2960   64.1250   11.8970 N.am  206  CYS206     -0.1967
     74  CA        32.8640   64.7560   13.1290 C.3   206  CYS206      0.1712
     75  C         32.4760   66.1180   12.5560 C.2   206  CYS206      0.2296
     76  O         33.3290   66.8320   12.0170 O.2   206  CYS206     -0.2864
     77  CB        34.0170   64.9770   14.1150 C.3   206  CYS206      0.0983
     78  SG        33.5010   66.0790   15.4650 S.3   206  CYS206     -0.0798
     79  N         33.9480   65.1000   21.0770 N.3   223  VAL223     -0.1245
     80  CA        33.9130   64.0650   20.0470 C.3   223  VAL223      0.1561
     81  C         35.3020   63.8550   19.4600 C.2   223  VAL223      0.2260
     82  O         35.7520   62.7190   19.2850 O.2   223  VAL223     -0.2867
     83  CB        32.9400   64.4470   18.9090 C.3   223  VAL223      0.0252
     84  CG1       32.9970   63.4100   17.7930 C.3   223  VAL223      0.0019
     85  CG2       31.5250   64.5610   19.4590 C.3   223  VAL223      0.0019
     86  N         37.8440   60.5700   19.2380 N.3   227  ILE227     -0.1245
     87  CA        38.3890   60.1740   17.9480 C.3   227  ILE227      0.1561
     88  C         39.8990   60.0110   18.0820 C.2   227  ILE227      0.2260
     89  O         40.4730   59.0210   17.6360 O.2   227  ILE227     -0.2867
     90  CB        38.0820   61.2240   16.8450 C.3   227  ILE227      0.0252
     91  CG1       36.5740   61.2740   16.5780 C.3   227  ILE227      0.0019
     92  CG2       38.8650   60.8920   15.5790 C.3   227  ILE227      0.0019
     93  CD1       36.1620   62.3050   15.5340 C.3   227  ILE227      0.0001
     94  N         28.1280   63.3660   14.3560 N.3   301  SER301     -0.1217
     95  CA        28.0630   64.0080   15.6670 C.3   301  SER301      0.1889
     96  C         29.2050   64.9920   15.8550 C.2   301  SER301      0.2288
     97  O         30.3250   64.7410   15.4060 O.2   301  SER301     -0.2866
     98  CB        28.1180   62.9550   16.7840 C.3   301  SER301      0.2089
     99  OG        26.9900   62.0980   16.7240 O.3   301  SER301     -0.2183
@<TRIPOS>BOND
     1    54    55    1
     2    72    70    1
     3    55    58    1
     4    55    56    1
     5    71    70    1
     6    58    59    1
     7    70    67    1
     8    66    56   am
     9    66    67    1
    10    46    47    1
    11    56    57    2
    12    44    43    1
    13    59    61   ar
    14    59    60   ar
    15    61    63   ar
    16    67    68    1
    17    60    62   ar
    18    48    47    1
    19    48    49    2
    20    47    50    1
    21    36    35    1
    22    36    37    1
    23    63    64   ar
    24     1     2    1
    25    43    40    1
    26    43    45    1
    27    62    64   ar
    28    64    65    1
    29    68    69    2
    30    68    73   am
    31    53    51   am
    32    40    39    1
    33    40    41    1
    34     2     5    1
    35     2     3    1
    36    37    39   am
    37    37    38    2
    38    50    51    1
    39    51    52    2
    40    73    74    1
    41     5     6    1
    42    76    75    2
    43    41    42    2
    44    75    74    1
    45     3     4    2
    46    74    77    1
    47     6     7    1
    48     8     7   ar
    49     7     9   ar
    50    77    78    1
    51    10    11    1
    52    94    95    1
    53    11    12    1
    54    11    14    1
    55    24    22   ar
    56    16    14    1
    57    21    22    1
    58    21    18    1
    59    97    96    2
    60    93    91    1
    61    92    90    1
    62    12    17   am
    63    12    13    2
    64    95    96    1
    65    95    98    1
    66    22    23   ar
    67    17    18    1
    68    14    15    1
    69    18    19    1
    70    91    90    1
    71    99    98    1
    72    90    87    1
    73    20    19    2
    74    19    25   am
    75    89    88    2
    76    84    83    1
    77    87    88    1
    78    87    86    1
    79    34    33   ar
    80    34    32   ar
    81    33    31   ar
    82    25    26    1
    83    83    85    1
    84    83    80    1
    85    32    30   ar
    86    82    81    2
    87    31    30   ar
    88    81    80    1
    89    30    29    1
    90    26    29    1
    91    26    27    1
    92    80    79    1
    93    27    28    2
