@<TRIPOS>MOLECULE
tmp/1f07D01.pdb
 108 101 0 0 0
SMALL
GASTEIGER

@<TRIPOS>ATOM
      1  N         34.9640   50.9890    7.4430 N.3   152  ALA152     -0.1231
      2  CA        36.3250   50.5230    7.2530 C.3   152  ALA152      0.1694
      3  C         37.3070   51.5650    7.7480 C.2   152  ALA152      0.2591
      4  O         37.3580   52.6810    7.2210 O.2   152  ALA152     -0.2718
      5  CB        36.5690   50.2140    5.7750 C.3   152  ALA152      0.0304
      6  N         38.0830   51.1950    8.7650 N.am  153  GLN153     -0.1979
      7  CA        39.0540   52.1050    9.3490 C.3   153  GLN153      0.1601
      8  C         40.4690   51.5650    9.1840 C.2   153  GLN153      0.2287
      9  O         41.4400   52.2020    9.5960 O.2   153  GLN153     -0.2864
     10  CB        38.7640   52.3040   10.8350 C.3   153  GLN153      0.0394
     11  CG        37.2930   52.5180   11.2000 C.3   153  GLN153      0.0908
     12  CD        36.5910   53.5810   10.3540 C.2   153  GLN153      0.2608
     13  OE1       37.1320   54.6640   10.1130 O.2   153  GLN153     -0.2717
     14  NE2       35.3610   53.2760    9.9210 N.am  153  GLN153     -0.0878
     15  N         43.3740   49.0260    6.6030 N.3   155  PRO155     -0.2116
     16  CA        43.7580   48.5430    5.2730 C.3   155  PRO155      0.1372
     17  C         43.0000   47.3200    4.7450 C.2   155  PRO155      0.2244
     18  O         42.5040   47.3150    3.6130 O.2   155  PRO155     -0.2868
     19  CB        45.2520   48.2750    5.4440 C.3   155  PRO155      0.0268
     20  CG        45.6440   49.3670    6.4420 C.3   155  PRO155      0.0207
     21  CD        44.5640   49.1220    7.4660 C.3   155  PRO155      0.0892
     22  N         39.3210   48.2210    4.2020 N.3   158  LEU158     -0.1245
     23  CA        39.1740   49.0870    3.0430 C.3   158  LEU158      0.1561
     24  C         39.2540   48.2630    1.7680 C.2   158  LEU158      0.2260
     25  O         38.3970   48.3780    0.8910 O.2   158  LEU158     -0.2867
     26  CB        40.2470   50.1700    3.0460 C.3   158  LEU158      0.0270
     27  CG        40.0610   51.2540    4.1070 C.3   158  LEU158      0.0019
     28  CD1       41.2670   52.1670    4.1090 C.3   158  LEU158      0.0001
     29  CD2       38.7950   52.0480    3.8280 C.3   158  LEU158      0.0001
     30  N         33.9610   55.7180    6.2420 N.3   170  ILE170     -0.1231
     31  CA        35.2550   55.9300    6.8560 C.3   170  ILE170      0.1692
     32  C         35.1790   57.0270    7.9000 C.2   170  ILE170      0.2592
     33  O         34.7740   58.1480    7.5930 O.2   170  ILE170     -0.2718
     34  CB        36.2680   56.3250    5.7880 C.3   170  ILE170      0.0266
     35  CG1       36.2730   55.2560    4.6940 C.3   170  ILE170      0.0019
     36  CG2       37.6560   56.5010    6.4090 C.3   170  ILE170      0.0020
     37  CD1       37.1880   55.5620    3.5340 C.3   170  ILE170      0.0001
     38  N         35.5640   56.6960    9.1320 N.am  171  ASN171     -0.1960
     39  CA        35.5520   57.6580   10.2310 C.3   171  ASN171      0.1819
     40  C         36.7570   58.5800   10.1030 C.2   171  ASN171      0.2621
     41  O         37.7820   58.3560   10.7330 O.2   171  ASN171     -0.2715
     42  CB        35.5980   56.9260   11.5810 C.3   171  ASN171      0.1195
     43  CG        34.3320   56.1400   11.8650 C.2   171  ASN171      0.2630
     44  OD1       34.3060   55.2770   12.7450 O.2   171  ASN171     -0.2716
     45  ND2       33.2640   56.4490   11.1380 N.am  171  ASN171     -0.0877
     46  N         36.6290   59.6080    9.2710 N.am  172  ALA172     -0.1977
     47  CA        37.7010   60.5680    9.0460 C.3   172  ALA172      0.1597
     48  C         37.0710   61.8490    8.5020 C.2   172  ALA172      0.2287
     49  O         35.9980   61.8160    7.8830 O.2   172  ALA172     -0.2864
     50  CB        38.7080   60.0170    8.0570 C.3   172  ALA172      0.0319
     51  N         43.4790   61.7280    5.0180 N.3   177  ASP177     -0.1239
     52  CA        43.0340   60.3920    5.3810 C.3   177  ASP177      0.1674
     53  C         42.4920   59.6600    4.1590 C.2   177  ASP177      0.2266
     54  O         42.8200   58.4990    3.9260 O.2   177  ASP177     -0.2867
     55  CB        41.9660   60.4650    6.4740 C.3   177  ASP177      0.1410
     56  CG        42.4630   61.1740    7.7230 C.2   177  ASP177      0.3668
     57  OD1       43.5100   60.7520    8.2630 O.co2 177  ASP177     -0.2456
     58  OD2       41.8090   62.1490    8.1660 O.co2 177  ASP177     -0.2456
     59  N         44.9710   58.4060    1.5950 N.3   180  ALA180     -0.1231
     60  CA        45.5660   57.1080    1.9090 C.3   180  ALA180      0.1694
     61  C         44.5680   55.9500    1.7820 C.2   180  ALA180      0.2591
     62  O         44.9260   54.8650    1.3220 O.2   180  ALA180     -0.2718
     63  CB        46.1510   57.1380    3.3200 C.3   180  ALA180      0.0304
     64  N         43.3190   56.1890    2.1730 N.am  181  ALA181     -0.1980
     65  CA        42.2780   55.1570    2.1370 C.3   181  ALA181      0.1597
     66  C         41.7480   54.7560    0.7600 C.2   181  ALA181      0.2287
     67  O         41.7440   53.5720    0.4140 O.2   181  ALA181     -0.2864
     68  CB        41.1070   55.5770    3.0270 C.3   181  ALA181      0.0319
     69  N         43.3810   52.1000   -1.3140 N.3   184  LEU184     -0.1245
     70  CA        43.1940   50.7380   -0.8180 C.3   184  LEU184      0.1561
     71  C         41.8530   50.2070   -1.2750 C.2   184  LEU184      0.2260
     72  O         41.7310   49.0410   -1.6470 O.2   184  LEU184     -0.2867
     73  CB        43.2620   50.7040    0.7110 C.3   184  LEU184      0.0270
     74  CG        44.6340   51.0040    1.3100 C.3   184  LEU184      0.0019
     75  CD1       44.5300   51.1180    2.8170 C.3   184  LEU184      0.0001
     76  CD2       45.5980   49.9030    0.9110 C.3   184  LEU184      0.0001
     77  N         45.1660   55.0710   15.8880 N.3   232  PRO232     -0.2116
     78  CA        46.5140   54.5040   16.0050 C.3   232  PRO232      0.1372
     79  C         47.5280   55.5960   15.6620 C.2   232  PRO232      0.2244
     80  O         47.2270   56.4960   14.8790 O.2   232  PRO232     -0.2868
     81  CB        46.4940   53.3920   14.9670 C.3   232  PRO232      0.0268
     82  CG        45.6390   54.0270   13.8850 C.3   232  PRO232      0.0207
     83  CD        44.4710   54.4830   14.7290 C.3   232  PRO232      0.0892
     84  N         50.0960   55.9360   13.6080 N.3   234  PRO234     -0.2102
     85  CA        50.3890   56.3140   12.2220 C.3   234  PRO234      0.1504
     86  C         49.4150   57.3790   11.7020 C.2   234  PRO234      0.2575
     87  O         49.7020   58.0710   10.7230 O.2   234  PRO234     -0.2718
     88  CB        50.2760   54.9830   11.4800 C.3   234  PRO234      0.0282
     89  CG        49.2550   54.2330   12.3190 C.3   234  PRO234      0.0208
     90  CD        49.8410   54.4900   13.6850 C.3   234  PRO234      0.0893
     91  N         48.2670   57.5070   12.3620 N.am  235  VAL235     -0.1980
     92  CA        47.2790   58.5080   11.9790 C.3   235  VAL235      0.1595
     93  C         47.7250   59.8950   12.4570 C.2   235  VAL235      0.2287
     94  O         47.6230   60.8630   11.7100 O.2   235  VAL235     -0.2864
     95  CB        45.8780   58.1820   12.5560 C.3   235  VAL235      0.0276
     96  CG1       44.9200   59.3350   12.3010 C.3   235  VAL235      0.0022
     97  CG2       45.3350   56.9250   11.8930 C.3   235  VAL235      0.0022
     98  N         50.4010   61.0010   10.2330 N.3   238  ARG238     -0.1245
     99  CA        49.9030   61.5350    8.9710 C.3   238  ARG238      0.1563
    100  C         49.5280   63.0130    9.0580 C.2   238  ARG238      0.2260
    101  O         49.7090   63.7610    8.1010 O.2   238  ARG238     -0.2867
    102  CB        48.6770   60.7340    8.5420 C.3   238  ARG238      0.0307
    103  CG        47.9480   61.2490    7.3140 C.3   238  ARG238      0.0489
    104  CD        46.6740   60.4470    7.1540 C.3   238  ARG238      0.2205
    105  NE        46.9960   59.0260    7.1250 N.pl3 238  ARG238     -0.0865
    106  CZ        46.1640   58.0550    7.4890 C.cat 238  ARG238      0.5346
    107  NH1       44.9410   58.3430    7.9190 N.pl3 238  ARG238      0.1354
    108  NH2       46.5730   56.7950    7.4500 N.pl3 238  ARG238      0.1354
@<TRIPOS>BOND
     1    72    71    2
     2    69    70    1
     3    71    70    1
     4    70    73    1
     5    67    66    2
     6    73    74    1
     7    66    65    1
     8    25    24    2
     9    76    74    1
    10    74    75    1
    11    62    61    2
    12    59    60    1
    13    24    23    1
    14    61    60    1
    15    61    64   am
    16    60    63    1
    17    65    64    1
    18    65    68    1
    19    23    26    1
    20    23    22    1
    21    26    27    1
    22    37    35    1
    23    18    17    2
    24    29    27    1
    25    54    53    2
    26    27    28    1
    27    53    52    1
    28    35    34    1
    29    17    16    1
    30    51    52    1
    31    16    19    1
    32    16    15    1
    33    52    55    1
    34    19    20    1
    35     5     2    1
    36    34    36    1
    37    34    31    1
    38    30    31    1
    39    20    21    1
    40    55    56    1
    41    15    21    1
    42    31    32    1
    43   105   104    1
    44   105   106    2
    45   104   103    1
    46     4     3    2
    47     2     1    1
    48     2     3    1
    49   103   102    1
    50   108   106    1
    51   106   107    1
    52    33    32    2
    53    56    58   ar
    54    56    57   ar
    55     3     6   am
    56    49    48    2
    57    32    38   am
    58    50    47    1
    59   101   100    2
    60    48    47    1
    61   102    99    1
    62     6     7    1
    63    99   100    1
    64    99    98    1
    65    47    46    1
    66    38    39    1
    67     8     7    1
    68     8     9    2
    69    46    40   am
    70     7    10    1
    71    14    12   am
    72    40    39    1
    73    40    41    2
    74    13    12    2
    75    39    42    1
    76    12    11    1
    77    87    86    2
    78    10    11    1
    79    45    43   am
    80    88    85    1
    81    88    89    1
    82    42    43    1
    83    86    85    1
    84    86    91   am
    85    94    93    2
    86    43    44    2
    87    97    95    1
    88    92    91    1
    89    92    93    1
    90    92    95    1
    91    85    84    1
    92    96    95    1
    93    89    90    1
    94    84    90    1
    95    82    83    1
    96    82    81    1
    97    83    77    1
    98    80    79    2
    99    81    78    1
   100    79    78    1
   101    77    78    1
