@<TRIPOS>MOLECULE
tmp/1f0cA00.pdb
 78 75 0 0 0
SMALL
GASTEIGER

@<TRIPOS>ATOM
      1  N         -3.2590   26.1510   37.1960 N.3    13  GLY13      -0.1225
      2  CA        -2.0680   25.3630   36.9440 C.3    13  GLY13       0.1811
      3  C         -1.0390   26.0330   36.0570 C.2    13  GLY13       0.2280
      4  O          0.1050   25.5940   35.9940 O.2    13  GLY13      -0.2866
      5  N          8.0980   21.9810   44.0070 N.3   144  TYR144     -0.1227
      6  CA         6.7960   21.3100   44.1040 C.3   144  TYR144      0.1736
      7  C          5.6910   21.8860   43.2510 C.2   144  TYR144      0.2595
      8  O          5.0270   22.8330   43.6670 O.2   144  TYR144     -0.2718
      9  CB         6.2890   21.2800   45.5610 C.3   144  TYR144      0.0548
     10  CG         7.0760   20.3670   46.4380 C.ar  144  TYR144     -0.0200
     11  CD1        8.2290   20.8100   47.0780 C.ar  144  TYR144     -0.0009
     12  CD2        6.6950   19.0310   46.6030 C.ar  144  TYR144     -0.0009
     13  CE1        8.9820   19.9500   47.8620 C.ar  144  TYR144      0.0417
     14  CE2        7.4480   18.1540   47.3790 C.ar  144  TYR144      0.0417
     15  CZ         8.5840   18.6160   48.0060 C.ar  144  TYR144      0.1957
     16  OH         9.3330   17.7540   48.7850 O.3   144  TYR144     -0.2866
     17  N          5.5070   21.3170   42.0650 N.am  145  VAL145     -0.1966
     18  CA         4.4360   21.6870   41.1450 C.3   145  VAL145      0.1727
     19  C          3.1190   21.3560   41.8820 C.2   145  VAL145      0.2617
     20  O          2.1500   22.0880   41.7820 O.2   145  VAL145     -0.2715
     21  CB         4.6060   20.9020   39.7930 C.3   145  VAL145      0.0290
     22  CG1        3.3600   20.9910   38.9400 C.3   145  VAL145      0.0023
     23  CG2        5.7750   21.5430   38.9800 C.3   145  VAL145      0.0023
     24  N          3.1100   20.2580   42.6410 N.am  146  SER146     -0.1936
     25  CA         1.9750   19.8640   43.4780 C.3   146  SER146      0.2040
     26  C          2.6290   19.1760   44.6880 C.2   146  SER146      0.2485
     27  O          3.8380   18.9900   44.6850 O.2   146  SER146     -0.2729
     28  CB         1.0100   18.9070   42.7430 C.3   146  SER146      0.2129
     29  OG         1.6580   17.6960   42.4240 O.3   146  SER146     -0.2179
     30  N          1.8560   18.8290   45.7370 N.am  147  PRO147     -0.2726
     31  CA         2.4190   18.1770   46.9240 C.3   147  PRO147      0.1402
     32  C          3.3110   16.9830   46.6590 C.2   147  PRO147      0.2269
     33  O          4.3030   16.8240   47.3420 O.2   147  PRO147     -0.2865
     34  CB         1.1850   17.8020   47.7400 C.3   147  PRO147      0.0296
     35  CG         0.2540   18.9480   47.4750 C.3   147  PRO147      0.0237
     36  CD         0.4360   19.1720   45.9590 C.3   147  PRO147      0.0939
     37  N          2.5030   24.2440   51.0950 N.3   196  ILE196     -0.1231
     38  CA         3.0180   23.8730   49.7940 C.3   196  ILE196      0.1692
     39  C          2.0040   24.0370   48.6920 C.2   196  ILE196      0.2592
     40  O          2.3730   24.2350   47.5380 O.2   196  ILE196     -0.2718
     41  CB         3.5190   22.4130   49.7720 C.3   196  ILE196      0.0266
     42  CG1        5.0200   22.3890   49.5440 C.3   196  ILE196      0.0019
     43  CG2        2.8520   21.6270   48.6390 C.3   196  ILE196      0.0020
     44  CD1        5.5390   21.0080   49.5360 C.3   196  ILE196      0.0001
     45  N          0.7230   23.9580   49.0350 N.am  197  ASP197     -0.1974
     46  CA        -0.3180   24.0600   48.0110 C.3   197  ASP197      0.1709
     47  C         -1.3070   25.1830   48.2810 C.2   197  ASP197      0.2293
     48  O         -2.4210   25.1520   47.7680 O.2   197  ASP197     -0.2864
     49  CB        -1.0690   22.7330   47.9200 C.3   197  ASP197      0.1436
     50  CG        -1.6950   22.3040   49.2720 C.2   197  ASP197      0.3671
     51  OD1       -2.3670   21.2320   49.3220 O.co2 197  ASP197     -0.2456
     52  OD2       -1.5190   23.0180   50.2890 O.co2 197  ASP197     -0.2456
     53  N         -1.3830   28.5620   47.3650 N.3   199  LEU199     -0.1231
     54  CA        -1.3720   29.8010   46.6130 C.3   199  LEU199      0.1693
     55  C         -2.7210   30.3070   46.2010 C.2   199  LEU199      0.2591
     56  O         -2.9940   31.4900   46.3140 O.2   199  LEU199     -0.2718
     57  CB        -0.4680   29.6770   45.3870 C.3   199  LEU199      0.0284
     58  CG        -0.2330   30.9520   44.5690 C.3   199  LEU199      0.0019
     59  CD1        0.5170   31.9510   45.4170 C.3   199  LEU199      0.0001
     60  CD2        0.5210   30.6520   43.2950 C.3   199  LEU199      0.0001
     61  N         -3.5740   29.4140   45.7360 N.am  200  GLU200     -0.1979
     62  CA        -4.8860   29.8090   45.2460 C.3   200  GLU200      0.1602
     63  C         -5.7760   30.6650   46.1470 C.2   200  GLU200      0.2287
     64  O         -6.3380   31.6720   45.6930 O.2   200  GLU200     -0.2864
     65  CB        -5.6510   28.5800   44.7920 C.3   200  GLU200      0.0415
     66  CG        -6.9190   28.9180   44.0210 C.3   200  GLU200      0.1163
     67  CD        -7.6110   27.6860   43.4590 C.2   200  GLU200      0.3649
     68  OE1       -7.6910   26.6490   44.1700 O.co2 200  GLU200     -0.2457
     69  OE2       -8.0910   27.7530   42.3080 O.co2 200  GLU200     -0.2457
     70  N         -4.1020   34.0270   46.3650 N.3   203  GLU203     -0.1245
     71  CA        -4.2160   34.6520   45.0540 C.3   203  GLU203      0.1567
     72  C         -5.5740   35.3300   44.9420 C.2   203  GLU203      0.2260
     73  O         -5.7030   36.4760   44.5060 O.2   203  GLU203     -0.2867
     74  CB        -4.1490   33.5740   43.9920 C.3   203  GLU203      0.0388
     75  CG        -4.1010   34.0390   42.5840 C.3   203  GLU203      0.1160
     76  CD        -4.0240   32.8480   41.6490 C.2   203  GLU203      0.3649
     77  OE1       -5.0840   32.2920   41.3140 O.co2 203  GLU203     -0.2457
     78  OE2       -2.9050   32.4390   41.2860 O.co2 203  GLU203     -0.2457
@<TRIPOS>BOND
     1     4     3    2
     2     3     2    1
     3     2     1    1
     4    22    21    1
     5    23    21    1
     6    21    18    1
     7    18    19    1
     8    18    17    1
     9    78    76   ar
    10    77    76   ar
    11    76    75    1
    12    20    19    2
    13    19    24   am
    14    17     7   am
    15    69    67   ar
    16    29    28    1
    17    75    74    1
    18    24    25    1
    19    28    25    1
    20     7     8    2
    21     7     6    1
    22    60    58    1
    23    67    66    1
    24    67    68   ar
    25    25    26    1
    26    74    71    1
    27     5     6    1
    28    66    65    1
    29     6     9    1
    30    73    72    2
    31    58    57    1
    32    58    59    1
    33    27    26    2
    34    26    30   am
    35    65    62    1
    36    72    71    1
    37    71    70    1
    38    62    61    1
    39    62    63    1
    40    57    54    1
    41     9    10    1
    42    64    63    2
    43    61    55   am
    44    30    36    1
    45    30    31    1
    46    36    35    1
    47    55    56    2
    48    55    54    1
    49    10    12   ar
    50    10    11   ar
    51    12    14   ar
    52    54    53    1
    53    32    31    1
    54    32    33    2
    55    31    34    1
    56    11    13   ar
    57    14    15   ar
    58    35    34    1
    59    40    39    2
    60    48    47    2
    61    13    15   ar
    62    49    46    1
    63    49    50    1
    64    15    16    1
    65    46    47    1
    66    46    45    1
    67    43    41    1
    68    39    45   am
    69    39    38    1
    70    50    51   ar
    71    50    52   ar
    72    44    42    1
    73    42    41    1
    74    41    38    1
    75    38    37    1
