@<TRIPOS>MOLECULE
tmp/1f0nA01.pdb
 104 97 0 0 0
SMALL
GASTEIGER

@<TRIPOS>ATOM
      1  N         43.9280   -0.7700   15.4150 N.3    41  LEU41      -0.1245
      2  CA        43.7400   -1.9810   16.2100 C.3    41  LEU41       0.1561
      3  C         42.3200   -2.3480   16.5990 C.2    41  LEU41       0.2260
      4  O         41.9230   -3.5110   16.5660 O.2    41  LEU41      -0.2867
      5  CB        44.5110   -1.7500   17.5180 C.3    41  LEU41       0.0270
      6  CG        44.7430   -2.9120   18.4630 C.3    41  LEU41       0.0019
      7  CD1       45.6420   -3.9890   17.8570 C.3    41  LEU41       0.0001
      8  CD2       45.3770   -2.3860   19.7440 C.3    41  LEU41       0.0001
      9  N         45.8730   -7.2290   12.2850 N.3    77  PHE77      -0.1241
     10  CA        47.0620   -6.7300   11.6320 C.3    77  PHE77       0.1605
     11  C         47.0000   -6.9660   10.1410 C.2    77  PHE77       0.2264
     12  O         47.9510   -7.0450    9.3880 O.2    77  PHE77      -0.2867
     13  CB        48.3330   -7.3960   12.2190 C.3    77  PHE77       0.0534
     14  CG        48.6980   -6.8100   13.5800 C.ar   77  PHE77      -0.0203
     15  CD1       48.0150   -7.1530   14.7260 C.ar   77  PHE77      -0.0042
     16  CD2       49.7290   -5.8870   13.7080 C.ar   77  PHE77      -0.0042
     17  CE1       48.2980   -6.6060   15.9420 C.ar   77  PHE77      -0.0003
     18  CE2       50.0370   -5.3270   14.9280 C.ar   77  PHE77      -0.0003
     19  CZ        49.3200   -5.6740   16.0540 C.ar   77  PHE77      -0.0000
     20  N         48.3190    2.8730   13.3210 N.3   125  SER125     -0.1202
     21  CA        48.3220    1.9480   14.4490 C.3   125  SER125      0.2020
     22  C         48.7250    0.5650   13.9740 C.2   125  SER125      0.2621
     23  O         49.7690    0.4500   13.3260 O.2   125  SER125     -0.2717
     24  CB        46.9490    2.0390   15.0980 C.3   125  SER125      0.2103
     25  OG        46.6010    1.0750   16.0580 O.3   125  SER125     -0.2182
     26  N         47.9620   -0.4760   14.2680 N.am  126  MET126     -0.1933
     27  CA        48.3690   -1.8330   13.8660 C.3   126  MET126      0.1821
     28  C         48.5800   -1.8810   12.3680 C.2   126  MET126      0.2332
     29  O         49.4910   -2.5640   11.9050 O.2   126  MET126     -0.2860
     30  CB        47.3310   -2.8850   14.2720 C.2   126  MET126      0.0096
     31  CG        46.3500   -3.3020   13.2120 C.2   126  MET126      0.0285
     32  SD        45.0020   -4.3600   13.7840 S.3   126  MET126     -0.1125
     33  CE        43.7380   -3.8130   12.6110 C.3   126  MET126      0.0742
     34  N         51.9950    6.1540   12.8080 N.3   149  SER149     -0.1217
     35  CA        52.0880    5.7430   14.2020 C.3   149  SER149      0.1889
     36  C         52.0930    4.2430   14.4560 C.2   149  SER149      0.2288
     37  O         51.4150    3.7010   15.3470 O.2   149  SER149     -0.2866
     38  CB        50.9060    6.3820   14.9570 C.3   149  SER149      0.2089
     39  OG        50.9430    7.7940   14.6580 O.3   149  SER149     -0.2183
     40  N         54.1620    0.4570   15.1390 N.3   151  LEU151     -0.1245
     41  CA        55.3500   -0.2230   15.6400 C.3   151  LEU151      0.1561
     42  C         56.0070   -0.9360   14.4540 C.2   151  LEU151      0.2260
     43  O         55.3890   -1.8960   13.9360 O.2   151  LEU151     -0.2867
     44  CB        54.9330   -1.1750   16.7300 C.3   151  LEU151      0.0270
     45  CG        56.0940   -1.9450   17.3760 C.3   151  LEU151      0.0019
     46  CD1       56.9410   -0.9880   18.1830 C.3   151  LEU151      0.0001
     47  CD2       55.4950   -3.0340   18.2300 C.3   151  LEU151      0.0001
     48  N         54.5570   -7.0280   23.2310 N.3   162  LEU162     -0.1231
     49  CA        53.6140   -5.9040   23.3400 C.3   162  LEU162      0.1693
     50  C         52.4240   -6.0990   22.4190 C.2   162  LEU162      0.2591
     51  O         51.2670   -5.7900   22.7100 O.2   162  LEU162     -0.2718
     52  CB        54.3320   -4.6070   23.0150 C.3   162  LEU162      0.0284
     53  CG        55.4100   -4.2280   24.0440 C.3   162  LEU162      0.0019
     54  CD1       56.3130   -3.1750   23.4190 C.3   162  LEU162      0.0001
     55  CD2       54.7590   -3.7380   25.3260 C.3   162  LEU162      0.0001
     56  N         52.7360   -6.6670   21.2700 N.am  163  ILE163     -0.1980
     57  CA        51.6200   -6.9230   20.3440 C.3   163  ILE163      0.1595
     58  C         50.6180   -7.8650   20.9480 C.2   163  ILE163      0.2287
     59  O         49.3890   -7.7010   20.8360 O.2   163  ILE163     -0.2864
     60  CB        52.2220   -7.4410   19.0270 C.3   163  ILE163      0.0276
     61  CG1       52.9520   -6.3040   18.3180 C.3   163  ILE163      0.0022
     62  CG2       51.1540   -8.0920   18.1780 C.3   163  ILE163      0.0022
     63  CD1       52.6280   -6.1250   16.8690 C.3   163  ILE163      0.0001
     64  N         48.3840   -5.8680   23.2320 N.3   166  ALA166     -0.1245
     65  CA        47.4140   -5.0080   22.5440 C.3   166  ALA166      0.1562
     66  C         46.1830   -5.7620   22.0510 C.2   166  ALA166      0.2260
     67  O         45.0430   -5.3020   22.1760 O.2   166  ALA166     -0.2867
     68  CB        48.1410   -4.3070   21.3890 C.3   166  ALA166      0.0290
     69  N         51.5340    6.1450   24.1330 N.3   228  LEU228     -0.1245
     70  CA        51.5700    5.2070   23.0070 C.3   228  LEU228      0.1561
     71  C         52.4500    5.7240   21.8850 C.2   228  LEU228      0.2260
     72  O         53.3020    5.0450   21.2820 O.2   228  LEU228     -0.2867
     73  CB        50.1410    4.9620   22.5280 C.3   228  LEU228      0.0270
     74  CG        49.4760    3.6230   22.7410 C.3   228  LEU228      0.0019
     75  CD1       48.0300    3.7350   23.2430 C.3   228  LEU228      0.0001
     76  CD2       49.4990    2.8530   21.4180 C.3   228  LEU228      0.0001
     77  N         56.1300    5.8130   22.6410 N.3   231  PHE231     -0.1227
     78  CA        56.5790    4.4460   22.5800 C.3   231  PHE231      0.1736
     79  C         56.8920    3.9920   21.1560 C.2   231  PHE231      0.2595
     80  O         58.0200    3.4910   21.0190 O.2   231  PHE231     -0.2718
     81  CB        55.5670    3.4200   23.1350 C.3   231  PHE231      0.0547
     82  CG        56.2770    2.0630   22.9620 C.ar  231  PHE231     -0.0202
     83  CD1       57.4830    1.8770   23.6130 C.ar  231  PHE231     -0.0042
     84  CD2       55.7540    1.0690   22.1770 C.ar  231  PHE231     -0.0042
     85  CE1       58.1890    0.6910   23.4820 C.ar  231  PHE231     -0.0003
     86  CE2       56.4660   -0.1150   22.0250 C.ar  231  PHE231     -0.0003
     87  CZ        57.6820   -0.2860   22.6490 C.ar  231  PHE231     -0.0000
     88  N         55.9380    4.1330   20.2310 N.am  232  VAL232     -0.1980
     89  CA        56.2140    3.6520   18.8670 C.3   232  VAL232      0.1595
     90  C         57.1760    4.4660   18.0520 C.2   232  VAL232      0.2287
     91  O         57.6710    4.1020   16.9670 O.2   232  VAL232     -0.2864
     92  CB        54.8770    3.4520   18.0890 C.3   232  VAL232      0.0276
     93  CG1       54.0160    2.4180   18.8010 C.3   232  VAL232      0.0022
     94  CG2       54.1150    4.7340   17.8680 C.3   232  VAL232      0.0022
     95  N         48.7490    9.7300   19.7950 N.3   261  HIS261     -0.1241
     96  CA        48.0740    8.5920   19.1450 C.3   261  HIS261      0.1621
     97  C         46.5570    8.7740   19.1250 C.2   261  HIS261      0.2264
     98  O         45.7890    8.0850   19.8000 O.2   261  HIS261     -0.2867
     99  CB        48.4460    7.2990   19.8730 C.3   261  HIS261      0.0745
    100  CG        48.4660    6.0130   19.1000 C.ar  261  HIS261      0.0817
    101  ND1       49.4930    5.5920   18.2640 N.ar  261  HIS261     -0.2268
    102  CD2       47.5490    5.0000   19.1130 C.ar  261  HIS261      0.1154
    103  CE1       49.1910    4.3940   17.7820 C.ar  261  HIS261      0.1986
    104  NE2       48.0330    4.0490   18.2650 N.ar  261  HIS261     -0.2212
@<TRIPOS>BOND
     1    12    11    2
     2    11    10    1
     3    10    13    1
     4    10     9    1
     5    29    28    2
     6    13    14    1
     7    28    27    1
     8    33    32    1
     9    34    35    1
    10    31    32    1
    11    31    30    2
    12    20    21    1
    13    23    22    2
    14    14    16   ar
    15    14    15   ar
    16    16    18   ar
    17    27    26    1
    18    27    30    1
    19    43    42    2
    20    22    26   am
    21    22    21    1
    22    35    36    1
    23    35    38    1
    24    21    24    1
    25    42    41    1
    26    36    37    2
    27    39    38    1
    28    15    17   ar
    29    18    19   ar
    30    24    25    1
    31    40    41    1
    32     1     2    1
    33    41    44    1
    34    17    19   ar
    35     2     3    1
    36     2     5    1
    37     4     3    2
    38    44    45    1
    39    63    61    1
    40    91    90    2
    41    45    46    1
    42    45    47    1
    43     5     6    1
    44   103   101   ar
    45   103   104   ar
    46     7     6    1
    47    94    92    1
    48    90    89    1
    49    92    93    1
    50    92    89    1
    51    62    60    1
    52   101   100   ar
    53   104   102   ar
    54    61    60    1
    55     6     8    1
    56    89    88    1
    57    60    57    1
    58   100   102   ar
    59   100    99    1
    60    97    96    1
    61    97    98    2
    62    96    95    1
    63    96    99    1
    64    88    79   am
    65    57    58    1
    66    57    56    1
    67    59    58    2
    68    80    79    2
    69    79    78    1
    70    56    50   am
    71    72    71    2
    72    68    65    1
    73    76    74    1
    74    71    70    1
    75    86    84   ar
    76    86    87   ar
    77    66    67    2
    78    66    65    1
    79    84    82   ar
    80    50    51    2
    81    50    49    1
    82    73    74    1
    83    73    70    1
    84    65    64    1
    85    78    77    1
    86    78    81    1
    87    87    85   ar
    88    74    75    1
    89    82    81    1
    90    82    83   ar
    91    70    69    1
    92    52    49    1
    93    52    53    1
    94    48    49    1
    95    54    53    1
    96    85    83   ar
    97    53    55    1
