@<TRIPOS>MOLECULE
tmp/1f0pA01.pdb
 129 126 0 0 0
SMALL
GASTEIGER

@<TRIPOS>ATOM
      1  N         42.1750    0.3630    8.8960 N.3    39  ASP39      -0.1225
      2  CA        41.7660    0.8600   10.1990 C.3    39  ASP39       0.1805
      3  C         42.7530    0.5020   11.2960 C.2    39  ASP39       0.2598
      4  O         43.6710   -0.2820   11.0750 O.2    39  ASP39      -0.2718
      5  CB        40.4080    0.2540   10.5490 C.3    39  ASP39       0.1424
      6  CG        39.6000    1.0740   11.5400 C.2    39  ASP39       0.3668
      7  OD1       40.1180    2.0290   12.1480 O.co2  39  ASP39      -0.2456
      8  OD2       38.4070    0.7350   11.7170 O.co2  39  ASP39      -0.2456
      9  N         42.5700    1.0740   12.4850 N.am   40  GLY40      -0.1942
     10  CA        43.5170    0.8300   13.5550 C.3    40  GLY40       0.2014
     11  C         43.1970   -0.4180   14.3460 C.2    40  GLY40       0.2639
     12  O         42.2630   -1.1550   14.0380 O.2    40  GLY40      -0.2714
     13  N         43.9750   -0.6720   15.3880 N.am   41  LEU41      -0.1963
     14  CA        43.8220   -1.8710   16.2090 C.3    41  LEU41       0.1728
     15  C         42.3940   -2.1590   16.6400 C.2    41  LEU41       0.2616
     16  O         41.9730   -3.3200   16.5850 O.2    41  LEU41      -0.2715
     17  CB        44.7090   -1.6910   17.4510 C.3    41  LEU41       0.0311
     18  CG        44.7180   -2.8250   18.4710 C.3    41  LEU41       0.0022
     19  CD1       45.6530   -3.9330   18.0330 C.3    41  LEU41       0.0001
     20  CD2       45.1280   -2.2840   19.8310 C.3    41  LEU41       0.0001
     21  N         41.6370   -1.1550   17.0750 N.am   42  ARG42      -0.1977
     22  CA        40.2830   -1.3830   17.5740 C.3    42  ARG42       0.1597
     23  C         39.1900   -1.2770   16.5150 C.2    42  ARG42       0.2287
     24  O         38.0760   -0.8250   16.8070 O.2    42  ARG42      -0.2864
     25  CB        39.9530   -0.3690   18.6850 C.3    42  ARG42       0.0334
     26  CG        40.7680   -0.6200   19.9440 C.3    42  ARG42       0.0492
     27  CD        40.3940    0.3890   21.0270 C.3    42  ARG42       0.2205
     28  NE        41.4760    0.4810   22.0050 N.pl3  42  ARG42      -0.0865
     29  CZ        41.6630   -0.4100   22.9720 C.cat  42  ARG42       0.5346
     30  NH1       40.8540   -1.4520   23.1010 N.pl3  42  ARG42       0.1354
     31  NH2       42.6750   -0.2430   23.8120 N.pl3  42  ARG42       0.1354
     32  N         37.2600    3.2730   11.0100 N.3    49  GLY49      -0.1225
     33  CA        37.6350    4.4160   11.8210 C.3    49  GLY49       0.1811
     34  C         37.9330    5.6650   11.0190 C.2    49  GLY49       0.2280
     35  O         37.7600    6.7910   11.5050 O.2    49  GLY49      -0.2866
     36  N         36.0230    9.0460   12.0570 N.3    53  ASN53      -0.1240
     37  CA        36.7770   10.1610   12.6080 C.3    53  ASN53       0.1653
     38  C         37.2270   11.1980   11.6080 C.2    53  ASN53       0.2266
     39  O         37.7550   12.2300   12.0330 O.2    53  ASN53      -0.2867
     40  CB        38.0120    9.5850   13.3340 C.3    53  ASN53       0.1155
     41  CG        37.5570    8.6940   14.4720 C.2    53  ASN53       0.2627
     42  OD1       37.1860    9.1880   15.5420 O.2    53  ASN53      -0.2716
     43  ND2       37.5640    7.3920   14.2380 N.am   53  ASN53      -0.0877
     44  N         46.9620    3.0880   10.0060 N.3   124  LEU124     -0.1231
     45  CA        47.4600    3.7060   11.2300 C.3   124  LEU124      0.1693
     46  C         47.5390    2.6390   12.3150 C.2   124  LEU124      0.2592
     47  O         46.8140    1.6430   12.2250 O.2   124  LEU124     -0.2718
     48  CB        46.5580    4.8290   11.7430 C.3   124  LEU124      0.0284
     49  CG        45.1860    4.2480   12.1490 C.3   124  LEU124      0.0019
     50  CD1       44.8170    4.5960   13.5700 C.3   124  LEU124      0.0001
     51  CD2       44.1310    4.6870   11.1430 C.3   124  LEU124      0.0001
     52  N         48.3950    2.8870   13.3090 N.am  125  SER125     -0.1952
     53  CA        48.4600    1.8990   14.3870 C.3   125  SER125      0.1924
     54  C         48.8230    0.5230   13.8500 C.2   125  SER125      0.2314
     55  O         49.7720    0.3660   13.0830 O.2   125  SER125     -0.2863
     56  CB        47.1140    1.8660   15.1030 C.3   125  SER125      0.2116
     57  OG        47.0750    0.8580   16.0940 O.3   125  SER125     -0.2180
     58  N         45.9910   13.3140   26.2260 N.3   222  ASN222     -0.1240
     59  CA        45.7310   12.3980   27.3390 C.3   222  ASN222      0.1653
     60  C         46.9230   11.4460   27.4450 C.2   222  ASN222      0.2266
     61  O         47.6620   11.3070   26.4730 O.2   222  ASN222     -0.2867
     62  CB        44.4060   11.6800   27.1740 C.3   222  ASN222      0.1155
     63  CG        44.2650   10.8850   25.8920 C.2   222  ASN222      0.2627
     64  OD1       44.5920    9.6970   25.8770 O.2   222  ASN222     -0.2716
     65  ND2       43.7680   11.5090   24.8260 N.am  222  ASN222     -0.0877
     66  N         47.3760    7.9810   27.8390 N.3   224  PRO224     -0.2102
     67  CA        47.4580    6.8190   26.9320 C.3   224  PRO224      0.1504
     68  C         47.8200    7.2310   25.5190 C.2   224  PRO224      0.2575
     69  O         48.6900    6.6480   24.8700 O.2   224  PRO224     -0.2718
     70  CB        46.0320    6.2630   26.9760 C.3   224  PRO224      0.0282
     71  CG        45.5900    6.6210   28.3640 C.3   224  PRO224      0.0208
     72  CD        46.0540    8.0510   28.4910 C.3   224  PRO224      0.0893
     73  N         47.1670    8.2810   25.0090 N.am  225  ALA225     -0.1980
     74  CA        47.5190    8.7050   23.6490 C.3   225  ALA225      0.1597
     75  C         48.9580    9.1870   23.5680 C.2   225  ALA225      0.2287
     76  O         49.6540    8.9430   22.5820 O.2   225  ALA225     -0.2864
     77  CB        46.5820    9.7930   23.1530 C.3   225  ALA225      0.0319
     78  N         51.3900    6.0380   24.2150 N.3   228  LEU228     -0.1245
     79  CA        51.4250    5.1440   23.0530 C.3   228  LEU228      0.1561
     80  C         52.2220    5.7470   21.9040 C.2   228  LEU228      0.2260
     81  O         53.0540    5.0750   21.2810 O.2   228  LEU228     -0.2867
     82  CB        50.0120    4.8130   22.5970 C.3   228  LEU228      0.0270
     83  CG        49.3290    3.5740   23.1650 C.3   228  LEU228      0.0019
     84  CD1       47.8180    3.7770   23.2130 C.3   228  LEU228      0.0001
     85  CD2       49.6670    2.3390   22.3430 C.3   228  LEU228      0.0001
     86  N         48.6490    9.6460   19.9120 N.3   261  HIS261     -0.1226
     87  CA        47.9990    8.4870   19.3030 C.3   261  HIS261      0.1752
     88  C         46.5000    8.7260   19.2510 C.2   261  HIS261      0.2597
     89  O         45.7320    8.1700   20.0320 O.2   261  HIS261     -0.2718
     90  CB        48.3340    7.2150   20.0820 C.3   261  HIS261      0.0759
     91  CG        48.3960    5.9840   19.2140 C.ar  261  HIS261      0.0818
     92  ND1       49.3970    5.7460   18.3030 N.ar  261  HIS261     -0.2268
     93  CD2       47.5730    4.9150   19.1310 C.ar  261  HIS261      0.1154
     94  CE1       49.1910    4.5870   17.6910 C.ar  261  HIS261      0.1986
     95  NE2       48.0850    4.0650   18.1810 N.ar  261  HIS261     -0.2212
     96  N         46.0850    9.5830   18.3250 N.am  262  SER262     -0.1938
     97  CA        44.7060   10.0440   18.3100 C.3   262  SER262      0.2055
     98  C         44.2900   10.4910   16.9160 C.2   262  SER262      0.2643
     99  O         45.1170   11.0450   16.1980 O.2   262  SER262     -0.2714
    100  CB        44.5380   11.2210   19.2900 C.3   262  SER262      0.2130
    101  OG        43.1920   11.2620   19.7500 O.3   262  SER262     -0.2179
    102  N         43.0280   10.2380   16.5800 N.am  263  TRP263     -0.1973
    103  CA        42.5290   10.4100   15.2180 C.3   263  TRP263      0.1640
    104  C         42.7570   11.8070   14.6690 C.2   263  TRP263      0.2290
    105  O         42.9060   11.9930   13.4550 O.2   263  TRP263     -0.2864
    106  CB        41.0280   10.0370   15.1830 C.3   263  TRP263      0.0576
    107  CG        40.8410    8.5460   15.0960 C.ar  263  TRP263      0.0006
    108  CD1       40.5100    7.6400   16.0530 C.ar  263  TRP263      0.0946
    109  CD2       40.9980    7.7940   13.8830 C.ar  263  TRP263      0.0152
    110  NE1       40.4500    6.3700   15.5210 N.ar  263  TRP263     -0.2442
    111  CE2       40.7470    6.4460   14.1890 C.ar  263  TRP263      0.0810
    112  CE3       41.3310    8.1770   12.5790 C.ar  263  TRP263      0.0012
    113  CZ2       40.8200    5.4530   13.2150 C.ar  263  TRP263      0.0191
    114  CZ3       41.4020    7.1910   11.6160 C.ar  263  TRP263      0.0001
    115  CH2       41.1460    5.8540   11.9520 C.ar  263  TRP263      0.0015
    116  N         45.9870   11.6790   12.7980 N.3   266  TRP266     -0.1241
    117  CA        45.9480   10.8050   11.6200 C.3   266  TRP266      0.1605
    118  C         45.1870   11.4540   10.4710 C.2   266  TRP266      0.2264
    119  O         45.6810   11.4850    9.3470 O.2   266  TRP266     -0.2867
    120  CB        45.3350    9.4470   11.9930 C.3   266  TRP266      0.0550
    121  CG        46.1560    8.7920   13.0660 C.ar  266  TRP266      0.0003
    122  CD1       47.5270    8.8240   13.1070 C.ar  266  TRP266      0.0946
    123  CD2       45.7390    8.0470   14.2070 C.ar  266  TRP266      0.0152
    124  NE1       47.9710    8.1410   14.2010 N.ar  266  TRP266     -0.2442
    125  CE2       46.8990    7.6530   14.8980 C.ar  266  TRP266      0.0810
    126  CE3       44.4990    7.6650   14.7310 C.ar  266  TRP266      0.0012
    127  CZ2       46.8690    6.9000   16.0770 C.ar  266  TRP266      0.0191
    128  CZ3       44.4630    6.9240   15.8880 C.ar  266  TRP266      0.0001
    129  CH2       45.6360    6.5470   16.5520 C.ar  266  TRP266      0.0015
@<TRIPOS>BOND
     1     1     2    1
     2   119   118    2
     3    44    45    1
     4     2     5    1
     5     2     3    1
     6   118   117    1
     7     5     6    1
     8    32    33    1
     9    34    35    2
    10    34    33    1
    11     4     3    2
    12    51    49    1
    13    45    48    1
    14    45    46    1
    15     3     9   am
    16     6     8   ar
    17     6     7   ar
    18    38    39    2
    19    38    37    1
    20   114   115   ar
    21   114   112   ar
    22   117   120    1
    23   117   116    1
    24    48    49    1
    25   115   113   ar
    26   120   121    1
    27    36    37    1
    28    49    50    1
    29    47    46    2
    30    46    52   am
    31     9    10    1
    32   112   109   ar
    33    37    40    1
    34   121   122   ar
    35   121   123   ar
    36    55    54    2
    37   122   124   ar
    38   113   111   ar
    39    52    53    1
    40    40    41    1
    41   105   104    2
    42    10    11    1
    43    54    53    1
    44   109   111   ar
    45   109   107   ar
    46    12    11    2
    47   111   110   ar
    48   124   125   ar
    49   123   126   ar
    50   123   125   ar
    51    43    41   am
    52    11    13   am
    53    53    56    1
    54    41    42    2
    55   104   103    1
    56   126   128   ar
    57   125   127   ar
    58   107   106    1
    59   107   108   ar
    60    56    57    1
    61   106   103    1
    62   103   102    1
    63    13    14    1
    64   110   108   ar
    65   128   129   ar
    66   127   129   ar
    67    99    98    2
    68    14    15    1
    69    14    17    1
    70    23    24    2
    71    23    22    1
    72   102    98   am
    73    16    15    2
    74    15    21   am
    75    98    97    1
    76    21    22    1
    77    17    18    1
    78    22    25    1
    79    94    95   ar
    80    94    92   ar
    81    19    18    1
    82    95    93   ar
    83    92    91   ar
    84    97    96    1
    85    97   100    1
    86    96    88   am
    87    18    20    1
    88    25    26    1
    89    93    91   ar
    90    91    90    1
    91    88    87    1
    92    88    89    2
    93   100   101    1
    94    87    86    1
    95    87    90    1
    96    26    27    1
    97    27    28    1
    98    81    80    2
    99    80    79    1
   100    28    29    2
   101    85    83    1
   102    76    75    2
   103    82    79    1
   104    82    83    1
   105    29    30    1
   106    29    31    1
   107    79    78    1
   108    77    74    1
   109    83    84    1
   110    75    74    1
   111    74    73    1
   112    65    63   am
   113    69    68    2
   114    73    68   am
   115    68    67    1
   116    64    63    2
   117    63    62    1
   118    58    59    1
   119    61    60    2
   120    67    70    1
   121    67    66    1
   122    70    71    1
   123    62    59    1
   124    59    60    1
   125    66    72    1
   126    71    72    1
