@<TRIPOS>MOLECULE
tmp/1f0pA02.pdb
 85 78 0 0 0
SMALL
GASTEIGER

@<TRIPOS>ATOM
      1  N         54.0150    0.4260   15.1810 N.3   151  LEU151     -0.1245
      2  CA        55.2050   -0.2640   15.7010 C.3   151  LEU151      0.1561
      3  C         55.8940   -0.9300   14.5150 C.2   151  LEU151      0.2260
      4  O         55.3540   -1.8900   13.9510 O.2   151  LEU151     -0.2867
      5  CB        54.8030   -1.2620   16.7790 C.3   151  LEU151      0.0270
      6  CG        55.9390   -2.0790   17.4130 C.3   151  LEU151      0.0019
      7  CD1       56.8550   -1.1560   18.2030 C.3   151  LEU151      0.0001
      8  CD2       55.3700   -3.1870   18.2750 C.3   151  LEU151      0.0001
      9  N         58.9370   -2.4680   14.1320 N.3   153  ASP153     -0.1239
     10  CA        59.8240   -3.6210   14.2990 C.3   153  ASP153      0.1674
     11  C         59.1680   -4.6760   15.1790 C.2   153  ASP153      0.2266
     12  O         59.7540   -5.0840   16.1830 O.2   153  ASP153     -0.2867
     13  CB        61.1540   -3.1990   14.9180 C.3   153  ASP153      0.1410
     14  CG        61.0240   -2.5810   16.2970 C.2   153  ASP153      0.3668
     15  OD1       59.9010   -2.4310   16.8230 O.co2 153  ASP153     -0.2456
     16  OD2       62.0680   -2.2260   16.8900 O.co2 153  ASP153     -0.2456
     17  N         60.7820   -7.7960   16.8960 N.3   156  GLN156     -0.1245
     18  CA        62.0100   -7.7000   17.6870 C.3   156  GLN156      0.1566
     19  C         61.7540   -7.4230   19.1610 C.2   156  GLN156      0.2260
     20  O         60.8370   -6.7050   19.5470 O.2   156  GLN156     -0.2867
     21  CB        62.9230   -6.6230   17.0940 C.3   156  GLN156      0.0367
     22  CG        63.1810   -6.7910   15.6040 C.3   156  GLN156      0.0905
     23  CD        64.1360   -7.9320   15.3080 C.2   156  GLN156      0.2608
     24  OE1       65.3460   -7.8030   15.4830 O.2   156  GLN156     -0.2717
     25  NE2       63.5920   -9.0550   14.8560 N.am  156  GLN156     -0.0878
     26  N         60.7830   -6.9560   22.7620 N.3   158  MET158     -0.1230
     27  CA        59.4890   -7.0040   23.4190 C.3   158  MET158      0.1702
     28  C         58.3520   -7.0110   22.3980 C.2   158  MET158      0.2592
     29  O         57.2190   -7.2740   22.8020 O.2   158  MET158     -0.2718
     30  CB        59.3420   -5.8110   24.3610 C.3   158  MET158      0.0401
     31  CG        60.1090   -5.9350   25.6690 C.3   158  MET158      0.0596
     32  SD        59.6890   -4.6260   26.8350 S.3   158  MET158     -0.1393
     33  CE        60.2700   -3.1780   25.9610 C.3   158  MET158      0.0692
     34  N         58.6520   -6.7220   21.1420 N.am  159  GLY159     -0.1957
     35  CA        57.6950   -6.5930   20.0690 C.3   159  GLY159      0.1869
     36  C         56.5370   -7.5650   20.1060 C.2   159  GLY159      0.2309
     37  O         55.3880   -7.1730   20.3330 O.2   159  GLY159     -0.2863
     38  N         54.4430   -7.1630   23.0880 N.3   162  LEU162     -0.1245
     39  CA        53.6160   -5.9470   23.1740 C.3   162  LEU162      0.1561
     40  C         52.4060   -6.1560   22.2700 C.2   162  LEU162      0.2260
     41  O         51.2880   -5.8370   22.6390 O.2   162  LEU162     -0.2867
     42  CB        54.4000   -4.7040   22.7930 C.3   162  LEU162      0.0270
     43  CG        55.4310   -4.2330   23.8320 C.3   162  LEU162      0.0019
     44  CD1       56.5250   -3.4390   23.1350 C.3   162  LEU162      0.0001
     45  CD2       54.7710   -3.4300   24.9400 C.3   162  LEU162      0.0001
     46  N         54.5900    7.9940   21.9010 N.3   230  ASN230     -0.1225
     47  CA        56.0140    8.1060   22.1680 C.3   230  ASN230      0.1785
     48  C         56.6480    6.7230   22.1310 C.2   230  ASN230      0.2597
     49  O         57.7420    6.5280   21.6210 O.2   230  ASN230     -0.2718
     50  CB        56.2690    8.7660   23.5310 C.3   230  ASN230      0.1169
     51  CG        57.7560    8.7090   23.8590 C.2   230  ASN230      0.2627
     52  OD1       58.1850    7.8900   24.6660 O.2   230  ASN230     -0.2716
     53  ND2       58.5220    9.5780   23.2100 N.am  230  ASN230     -0.0877
     54  N         55.9160    5.7580   22.6780 N.am  231  PHE231     -0.1976
     55  CA        56.4500    4.4110   22.7330 C.3   231  PHE231      0.1639
     56  C         56.7900    3.8470   21.3590 C.2   231  PHE231      0.2290
     57  O         57.8020    3.1450   21.2210 O.2   231  PHE231     -0.2864
     58  CB        55.4650    3.4840   23.4620 C.3   231  PHE231      0.0560
     59  CG        56.1450    2.1500   23.7800 C.ar  231  PHE231     -0.0200
     60  CD1       56.9660    2.0200   24.8880 C.ar  231  PHE231     -0.0042
     61  CD2       55.9550    1.0550   22.9560 C.ar  231  PHE231     -0.0042
     62  CE1       57.5840    0.8210   25.1850 C.ar  231  PHE231     -0.0003
     63  CE2       56.5660   -0.1460   23.2570 C.ar  231  PHE231     -0.0003
     64  CZ        57.3760   -0.2740   24.3680 C.ar  231  PHE231     -0.0000
     65  N         60.3880    5.2430   18.4970 N.3   234  SER234     -0.1202
     66  CA        61.7670    4.8550   18.1650 C.3   234  SER234      0.2020
     67  C         61.8170    3.8520   17.0200 C.2   234  SER234      0.2619
     68  O         62.7310    3.9240   16.2000 O.2   234  SER234     -0.2717
     69  CB        62.4960    4.2850   19.3870 C.3   234  SER234      0.2103
     70  OG        61.6230    3.4270   20.1010 O.3   234  SER234     -0.2182
     71  N         60.8610    2.9240   16.9650 N.am  235  SER235     -0.1951
     72  CA        60.8560    1.9710   15.8470 C.3   235  SER235      0.1924
     73  C         60.7040    2.7010   14.5230 C.2   235  SER235      0.2314
     74  O         61.1700    2.2230   13.4910 O.2   235  SER235     -0.2863
     75  CB        59.7310    0.9450   15.9830 C.3   235  SER235      0.2116
     76  OG        58.4380    1.4880   15.7740 O.3   235  SER235     -0.2180
     77  N         64.1480    4.1300   13.8460 N.3   238  LYS238     -0.1245
     78  CA        65.0640    3.0780   13.3920 C.3   238  LYS238      0.1561
     79  C         64.7180    2.5970   11.9930 C.2   238  LYS238      0.2260
     80  O         65.5840    2.2690   11.1760 O.2   238  LYS238     -0.2867
     81  CB        65.0410    1.9120   14.3840 C.3   238  LYS238      0.0271
     82  CG        65.5620    2.3050   15.7710 C.3   238  LYS238      0.0035
     83  CD        66.1470    1.0740   16.4530 C.3   238  LYS238      0.0206
     84  CE        65.4420    0.7270   17.7510 C.3   238  LYS238      0.1093
     85  NZ        65.7700   -0.6500   18.2140 N.3   238  LYS238     -0.1314
@<TRIPOS>BOND
     1    80    79    2
     2    79    78    1
     3    78    77    1
     4    78    81    1
     5    74    73    2
     6     4     3    2
     7     9    10    1
     8    10    13    1
     9    10    11    1
    10    81    82    1
    11     3     2    1
    12    73    72    1
    13    25    23   am
    14    13    14    1
    15    11    12    2
    16     1     2    1
    17    23    24    2
    18    23    22    1
    19    22    21    1
    20     2     5    1
    21    82    83    1
    22    76    75    1
    23    72    75    1
    24    72    71    1
    25    68    67    2
    26    14    15   ar
    27    14    16   ar
    28    83    84    1
    29     5     6    1
    30    17    18    1
    31    71    67   am
    32    67    66    1
    33    21    18    1
    34     6     7    1
    35     6     8    1
    36    18    19    1
    37    84    85    1
    38    66    65    1
    39    66    69    1
    40    19    20    2
    41    69    70    1
    42    35    36    1
    43    35    34    1
    44    36    37    2
    45    34    28   am
    46    57    56    2
    47    56    55    1
    48    49    48    2
    49    46    47    1
    50    48    47    1
    51    48    54   am
    52    47    50    1
    53    40    41    2
    54    40    39    1
    55    28    29    2
    56    28    27    1
    57    54    55    1
    58    55    58    1
    59    26    27    1
    60    42    39    1
    61    42    43    1
    62    61    63   ar
    63    61    59   ar
    64    38    39    1
    65    44    43    1
    66    53    51   am
    67    63    64   ar
    68    27    30    1
    69    58    59    1
    70    50    51    1
    71    59    60   ar
    72    43    45    1
    73    51    52    2
    74    30    31    1
    75    64    62   ar
    76    60    62   ar
    77    31    32    1
    78    33    32    1
