@<TRIPOS>MOLECULE
tmp/1f0rA00.pdb
 168 167 0 0 0
SMALL
GASTEIGER

@<TRIPOS>ATOM
      1  N         14.0420   10.7810   14.3360 N.3    42  HIS42      -0.1241
      2  CA        12.5770   10.7770   14.3280 C.3    42  HIS42       0.1621
      3  C         11.9390   12.1050   14.6680 C.2    42  HIS42       0.2264
      4  O         10.7610   12.3100   14.3940 O.2    42  HIS42      -0.2867
      5  CB        12.0030    9.6520   15.2180 C.3    42  HIS42       0.0745
      6  CG        11.8060   10.0140   16.6490 C.ar   42  HIS42       0.0817
      7  ND1       12.6810    9.6170   17.6430 N.ar   42  HIS42      -0.2268
      8  CD2       10.7710   10.6110   17.2830 C.ar   42  HIS42       0.1154
      9  CE1       12.1900    9.9490   18.8270 C.ar   42  HIS42       0.1986
     10  NE2       11.0310   10.5570   18.6370 N.ar   42  HIS42      -0.2212
     11  N          9.8890    2.6740   11.1210 N.3    83  GLU83      -0.1231
     12  CA         9.2150    1.4590   11.5570 C.3    83  GLU83       0.1699
     13  C          9.7510    0.7410   12.8020 C.2    83  GLU83       0.2593
     14  O          8.9690    0.2060   13.5920 O.2    83  GLU83      -0.2718
     15  CB         9.1550    0.4710   10.3830 C.3    83  GLU83       0.0402
     16  CG         7.7950    0.3890    9.7080 C.3    83  GLU83       0.1161
     17  CD         6.7080   -0.1000   10.6440 C.2    83  GLU83       0.3649
     18  OE1        6.9520   -1.0800   11.3800 O.co2  83  GLU83      -0.2457
     19  OE2        5.6100    0.4940   10.6450 O.co2  83  GLU83      -0.2457
     20  N         11.0650    0.7340   12.9770 N.am   84  THR84      -0.1939
     21  CA        11.6960    0.0470   14.0940 C.3    84  THR84       0.2028
     22  C         12.3840    0.9990   15.0750 C.2    84  THR84       0.2642
     23  O         12.7390    0.5950   16.1840 O.2    84  THR84      -0.2714
     24  CB        12.7540   -0.9310   13.5580 C.3    84  THR84       0.1808
     25  OG1       13.7030   -0.2130   12.7590 O.3    84  THR84      -0.2208
     26  CG2       12.1020   -1.9880   12.6420 C.3    84  THR84       0.0379
     27  N         12.5630    2.2540   14.6490 N.am   85  TYR85      -0.1973
     28  CA        13.2280    3.3000   15.4350 C.3    85  TYR85       0.1639
     29  C         14.6930    3.0360   15.4810 C.2    85  TYR85       0.2290
     30  O         15.3540    3.4610   16.4350 O.2    85  TYR85      -0.2864
     31  CB        12.7560    3.3310   16.8770 C.3    85  TYR85       0.0560
     32  CG        11.5810    4.2200   17.1210 C.ar   85  TYR85      -0.0198
     33  CD1       10.2930    3.7400   16.9560 C.ar   85  TYR85      -0.0009
     34  CD2       11.7510    5.5250   17.5720 C.ar   85  TYR85      -0.0009
     35  CE1        9.2020    4.5130   17.2380 C.ar   85  TYR85       0.0417
     36  CE2       10.6500    6.3260   17.8630 C.ar   85  TYR85       0.0417
     37  CZ         9.3810    5.8040   17.6980 C.ar   85  TYR85       0.1957
     38  OH         8.2820    6.5450   18.0350 O.3    85  TYR85      -0.2866
     39  N          9.2330   -4.6580   21.6040 N.3   162  PHE162     -0.1241
     40  CA         9.8600   -4.4500   20.3100 C.3   162  PHE162      0.1605
     41  C         11.3440   -4.7530   20.3340 C.2   162  PHE162      0.2264
     42  O         11.9540   -4.7840   21.3780 O.2   162  PHE162     -0.2867
     43  CB         9.5630   -3.0260   19.8330 C.3   162  PHE162      0.0534
     44  CG         8.0820   -2.7120   19.8210 C.ar  162  PHE162     -0.0203
     45  CD1        7.3100   -3.0030   18.7060 C.ar  162  PHE162     -0.0042
     46  CD2        7.4500   -2.2610   20.9650 C.ar  162  PHE162     -0.0042
     47  CE1        5.9320   -2.8600   18.7430 C.ar  162  PHE162     -0.0003
     48  CE2        6.0720   -2.1130   21.0180 C.ar  162  PHE162     -0.0003
     49  CZ         5.3050   -2.4140   19.9100 C.ar  162  PHE162     -0.0000
     50  N         11.5500    8.5550   34.2850 N.3   179  ASP179     -0.1225
     51  CA        11.9150    8.1100   32.9510 C.3   179  ASP179      0.1805
     52  C         11.8320    9.3710   32.0870 C.2   179  ASP179      0.2598
     53  O         11.3070   10.3900   32.5420 O.2   179  ASP179     -0.2718
     54  CB        10.8620    7.0660   32.5370 C.3   179  ASP179      0.1424
     55  CG        11.0940    6.4810   31.1850 C.2   179  ASP179      0.3668
     56  OD1       12.2150    6.5800   30.6540 O.co2 179  ASP179     -0.2456
     57  OD2       10.1220    5.9090   30.6350 O.co2 179  ASP179     -0.2456
     58  N         12.4100    9.3420   30.8940 N.am  180  ALA180     -0.1966
     59  CA        12.2430   10.4720   29.9930 C.3   180  ALA180      0.1728
     60  C         10.8210   10.2060   29.4680 C.2   180  ALA180      0.2616
     61  O         10.2330    9.1710   29.7980 O.2   180  ALA180     -0.2715
     62  CB        13.2550   10.4300   28.8490 C.3   180  ALA180      0.0334
     63  N         10.2790   11.0960   28.6460 N.am  181  CYS181     -0.1954
     64  CA         8.9220   10.9330   28.1290 C.3   181  CYS181      0.1843
     65  C          8.7520   11.7580   26.8660 C.2   181  CYS181      0.2625
     66  O          9.7220   12.3180   26.3720 O.2   181  CYS181     -0.2714
     67  CB         7.8980   11.3340   29.1870 C.3   181  CYS181      0.0997
     68  SG         6.2020   10.8130   28.7450 S.3   181  CYS181     -0.0797
     69  N          7.5490   11.8150   26.3100 N.am  182  GLN182     -0.1977
     70  CA         7.3320   12.5720   25.0620 C.3   182  GLN182      0.1601
     71  C          7.7670   14.0640   25.1840 C.2   182  GLN182      0.2287
     72  O          7.4910   14.7310   26.1780 O.2   182  GLN182     -0.2864
     73  CB         5.8610   12.4830   24.6290 C.3   182  GLN182      0.0394
     74  CG         5.6030   13.0090   23.2100 C.3   182  GLN182      0.0908
     75  CD         4.2250   12.6210   22.7030 C.2   182  GLN182      0.2608
     76  OE1        3.7960   11.4690   22.8430 O.2   182  GLN182     -0.2717
     77  NE2        3.5140   13.5840   22.1120 N.am  182  GLN182     -0.0878
     78  N         12.5210   13.5470   23.4600 N.3   185  SER185     -0.1217
     79  CA        13.2380   12.8590   22.3710 C.3   185  SER185      0.1889
     80  C         14.2780   13.7190   21.7060 C.2   185  SER185      0.2288
     81  O         14.0130   14.8920   21.4850 O.2   185  SER185     -0.2866
     82  CB        12.2570   12.3470   21.3100 C.3   185  SER185      0.2089
     83  OG        11.1190   11.7530   21.9370 O.3   185  SER185     -0.2183
     84  N         17.9570   10.5320   23.6060 N.3   203  VAL203     -0.1231
     85  CA        16.6230   10.1040   24.0200 C.3   203  VAL203      0.1692
     86  C         15.8640    9.5910   22.7710 C.2   203  VAL203      0.2593
     87  O         15.6990   10.3160   21.7480 O.2   203  VAL203     -0.2718
     88  CB        15.8540   11.2620   24.7080 C.3   203  VAL203      0.0266
     89  CG1       14.4700   10.8350   25.1530 C.3   203  VAL203      0.0020
     90  CG2       16.6330   11.7190   25.9450 C.3   203  VAL203      0.0020
     91  N         15.4190    8.3270   22.8370 N.am  204  SER204     -0.1938
     92  CA        14.7590    7.7770   21.6710 C.3   204  SER204      0.2055
     93  C         13.2960    7.3820   21.8250 C.2   204  SER204      0.2643
     94  O         12.4340    7.9990   21.2260 O.2   204  SER204     -0.2714
     95  CB        15.5690    6.5980   21.1220 C.3   204  SER204      0.2130
     96  OG        15.2120    6.3070   19.7820 O.3   204  SER204     -0.2179
     97  N         13.0010    6.3720   22.6330 N.am  205  TRP205     -0.1959
     98  CA        11.6170    5.9610   22.7550 C.3   205  TRP205      0.1771
     99  C         11.4200    5.1150   23.9680 C.2   205  TRP205      0.2620
    100  O         12.3450    4.9160   24.7560 O.2   205  TRP205     -0.2715
    101  CB        11.1710    5.1970   21.4930 C.3   205  TRP205      0.0590
    102  CG        11.9710    3.9330   21.2000 C.ar  205  TRP205      0.0006
    103  CD1       13.1500    3.8420   20.5190 C.ar  205  TRP205      0.0946
    104  CD2       11.5990    2.5710   21.5370 C.ar  205  TRP205      0.0152
    105  NE1       13.5440    2.5110   20.4090 N.ar  205  TRP205     -0.2442
    106  CE2       12.6090    1.7200   21.0270 C.ar  205  TRP205      0.0810
    107  CE3       10.5030    1.9950   22.2210 C.ar  205  TRP205      0.0012
    108  CZ2       12.5640    0.3150   21.1800 C.ar  205  TRP205      0.0191
    109  CZ3       10.4580    0.5860   22.3720 C.ar  205  TRP205      0.0001
    110  CH2       11.4800   -0.2210   21.8540 C.ar  205  TRP205      0.0015
    111  N         10.1850    4.6340   24.1180 N.am  206  GLY206     -0.1940
    112  CA         9.8150    3.7810   25.2280 C.3   206  GLY206      0.2014
    113  C          8.3450    3.4530   25.0140 C.2   206  GLY206      0.2639
    114  O          7.7080    4.0830   24.1590 O.2   206  GLY206     -0.2714
    115  N          7.8030    2.5210   25.7970 N.am  207  GLU207     -0.1963
    116  CA         6.3780    2.1130   25.6820 C.3   207  GLU207      0.1733
    117  C          5.6500    2.8920   26.7630 C.2   207  GLU207      0.2617
    118  O          5.6510    2.5110   27.9260 O.2   207  GLU207     -0.2715
    119  CB         6.2830    0.5990   25.9130 C.3   207  GLU207      0.0429
    120  CG         6.9290   -0.2110   24.7760 C.3   207  GLU207      0.1163
    121  CD         6.9320   -1.7290   25.0760 C.2   207  GLU207      0.3649
    122  OE1        5.8540   -2.2040   25.5150 O.co2 207  GLU207     -0.2457
    123  OE2        7.9870   -2.4210   24.8850 O.co2 207  GLU207     -0.2457
    124  N          5.0410    4.0130   26.3840 N.am  208  GLY208     -0.1940
    125  CA         4.4540    4.8600   27.4010 C.3   208  GLY208      0.2014
    126  C          5.6440    5.5320   28.1010 C.2   208  GLY208      0.2639
    127  O          6.7150    5.6760   27.5100 O.2   208  GLY208     -0.2714
    128  N          5.4960    5.9270   29.3490 N.am  209  CYS209     -0.1967
    129  CA         6.6070    6.5310   30.0590 C.3   209  CYS209      0.1712
    130  C          6.5330    6.0600   31.4850 C.2   209  CYS209      0.2296
    131  O          5.4650    6.0590   32.0760 O.2   209  CYS209     -0.2864
    132  CB         6.5130    8.0990   30.0490 C.3   209  CYS209      0.0983
    133  SG         6.4160    8.8120   28.3980 S.3   209  CYS209     -0.0798
    134  N          6.5140    3.2750   32.7220 N.3   211  ARG211     -0.1245
    135  CA         5.7000    2.0700   32.9300 C.3   211  ARG211      0.1563
    136  C          6.4170    0.9320   33.6950 C.2   211  ARG211      0.2260
    137  O          7.6360    0.6850   33.5270 O.2   211  ARG211     -0.2867
    138  CB         5.2170    1.5630   31.5840 C.3   211  ARG211      0.0307
    139  CG         3.9960    2.3100   31.0880 C.3   211  ARG211      0.0489
    140  CD         3.3390    1.5750   29.9340 C.3   211  ARG211      0.2205
    141  NE         2.3920    2.3940   29.2000 N.pl3 211  ARG211     -0.0865
    142  CZ         2.0860    2.1660   27.9360 C.cat 211  ARG211      0.5346
    143  NH1        2.6630    1.1370   27.2960 N.pl3 211  ARG211      0.1354
    144  NH2        1.2300    2.9640   27.3110 N.pl3 211  ARG211      0.1354
    145  N         13.5840    3.0020   29.4210 N.3   216  GLY216     -0.1210
    146  CA        13.7000    4.0720   28.4390 C.3   216  GLY216      0.1956
    147  C         14.7110    3.6130   27.4280 C.2   216  GLY216      0.2612
    148  O         15.7640    3.0510   27.7730 O.2   216  GLY216     -0.2717
    149  N         14.4210    3.8370   26.1730 N.am  217  ILE217     -0.1965
    150  CA        15.3190    3.3950   25.1590 C.3   217  ILE217      0.1727
    151  C         16.0490    4.6070   24.5220 C.2   217  ILE217      0.2616
    152  O         15.4090    5.5950   24.1040 O.2   217  ILE217     -0.2715
    153  CB        14.5450    2.6220   24.0700 C.3   217  ILE217      0.0290
    154  CG1       13.4770    1.7220   24.7050 C.3   217  ILE217      0.0022
    155  CG2       15.5350    1.8360   23.2210 C.3   217  ILE217      0.0023
    156  CD1       14.0610    0.5220   25.4930 C.3   217  ILE217      0.0001
    157  N         17.3700    4.4570   24.4050 N.am  218  TYR218     -0.1974
    158  CA        18.3130    5.4840   23.9070 C.3   218  TYR218      0.1639
    159  C         19.1250    5.0240   22.7220 C.2   218  TYR218      0.2290
    160  O         19.5170    3.8400   22.6680 O.2   218  TYR218     -0.2864
    161  CB        19.3060    5.8020   25.0100 C.3   218  TYR218      0.0560
    162  CG        18.6550    6.3630   26.2320 C.ar  218  TYR218     -0.0198
    163  CD1       18.1230    5.5200   27.2270 C.ar  218  TYR218     -0.0009
    164  CD2       18.4480    7.7600   26.3520 C.ar  218  TYR218     -0.0009
    165  CE1       17.3810    6.0250   28.3100 C.ar  218  TYR218      0.0417
    166  CE2       17.7120    8.2740   27.4350 C.ar  218  TYR218      0.0417
    167  CZ        17.1820    7.4260   28.3960 C.ar  218  TYR218      0.1957
    168  OH        16.4850    7.9740   29.4430 O.3   218  TYR218     -0.2866
@<TRIPOS>BOND
     1    16    15    1
     2    16    17    1
     3    15    12    1
     4    17    19   ar
     5    17    18   ar
     6    11    12    1
     7    12    13    1
     8    26    24    1
     9    25    24    1
    10    13    20   am
    11    13    14    2
    12    20    21    1
    13    24    21    1
    14    21    22    1
    15     2     1    1
    16     2     3    1
    17     2     5    1
    18     4     3    2
    19    27    22   am
    20    27    28    1
    21    22    23    2
    22     5     6    1
    23    28    29    1
    24    28    31    1
    25    29    30    2
    26     6     8   ar
    27     6     7   ar
    28    31    32    1
    29    33    32   ar
    30    33    35   ar
    31    32    34   ar
    32    35    37   ar
    33     8    10   ar
    34    34    36   ar
    35     7     9   ar
    36    37    36   ar
    37    37    38    1
    38    10     9   ar
    39    45    47   ar
    40    45    44   ar
    41    47    49   ar
    42    96    95    1
    43    44    43    1
    44    44    46   ar
    45    43    40    1
    46    49    48   ar
    47    40    41    1
    48    40    39    1
    49    41    42    2
    50   105   103   ar
    51   105   106   ar
    52   103   102   ar
    53    46    48   ar
    54   106   108   ar
    55   106   104   ar
    56    95    92    1
    57   108   110   ar
    58   102   101    1
    59   102   104   ar
    60    94    93    2
    61    82    83    1
    62    82    79    1
    63    81    80    2
    64   101    98    1
    65   104   107   ar
    66    92    93    1
    67    92    91    1
    68    80    79    1
    69    87    86    2
    70    93    97   am
    71   110   109   ar
    72    77    75   am
    73   107   109   ar
    74    79    78    1
    75    97    98    1
    76   160   159    2
    77    75    76    2
    78    75    74    1
    79   159   158    1
    80    98    99    1
    81    86    91   am
    82    86    85    1
    83    74    73    1
    84   155   153    1
    85    84    85    1
    86   158   157    1
    87   158   161    1
    88    99   111   am
    89    99   100    2
    90    85    88    1
    91   153   154    1
    92   153   150    1
    93   152   151    2
    94   111   112    1
    95   114   113    2
    96   157   151   am
    97   151   150    1
    98    73    70    1
    99   154   156    1
   100    88    89    1
   101    88    90    1
   102   120   121    1
   103   120   119    1
   104   123   121   ar
   105   161   162    1
   106   113   112    1
   107   113   115   am
   108    70    71    1
   109    70    69    1
   110   121   122   ar
   111   150   149    1
   112    71    72    2
   113   116   115    1
   114   116   119    1
   115   116   117    1
   116   149   147   am
   117   162   164   ar
   118   162   163   ar
   119    69    65   am
   120   164   166   ar
   121    66    65    2
   122   124   117   am
   123   124   125    1
   124   117   118    2
   125    65    64    1
   126   163   165   ar
   127   143   142    1
   128   144   142    1
   129   125   126    1
   130   147   148    2
   131   147   146    1
   132   166   167   ar
   133   127   126    2
   134   142   141    2
   135   126   128   am
   136    64    63    1
   137    64    67    1
   138   165   167   ar
   139   167   168    1
   140   133    68    1
   141   133   132    1
   142   146   145    1
   143    63    60   am
   144    68    67    1
   145    62    59    1
   146   141   140    1
   147   128   129    1
   148    60    61    2
   149    60    59    1
   150   140   139    1
   151    59    58    1
   152   132   129    1
   153   129   130    1
   154    57    55   ar
   155    56    55   ar
   156    58    52   am
   157   139   138    1
   158    55    54    1
   159   130   131    2
   160   138   135    1
   161    52    53    2
   162    52    51    1
   163    54    51    1
   164   134   135    1
   165   135   136    1
   166    51    50    1
   167   137   136    2
