@<TRIPOS>MOLECULE
tmp/1f0sA00.pdb
 164 162 0 0 0
SMALL
GASTEIGER

@<TRIPOS>ATOM
      1  N         14.1430   10.3740   13.9400 N.3    42  HIS42      -0.1241
      2  CA        12.6860   10.3020   13.8920 C.3    42  HIS42       0.1621
      3  C         11.9910   11.6300   14.2080 C.2    42  HIS42       0.2264
      4  O         10.7910   11.7720   13.9880 O.2    42  HIS42      -0.2867
      5  CB        12.1760    9.1700   14.8120 C.3    42  HIS42       0.0745
      6  CG        11.7830    9.6040   16.1960 C.ar   42  HIS42       0.0817
      7  ND1       12.5170    9.2700   17.3160 N.ar   42  HIS42      -0.2268
      8  CD2       10.6990   10.2790   16.6490 C.ar   42  HIS42       0.1154
      9  CE1       11.9030    9.7200   18.3970 C.ar   42  HIS42       0.1986
     10  NE2       10.7980   10.3370   18.0200 N.ar   42  HIS42      -0.2212
     11  N          9.6080    2.2270   10.7250 N.3    83  GLU83      -0.1231
     12  CA         8.8330    1.1520   11.3550 C.3    83  GLU83       0.1699
     13  C          9.3590    0.5500   12.6670 C.2    83  GLU83       0.2593
     14  O          8.5740    0.0540   13.4790 O.2    83  GLU83      -0.2718
     15  CB         8.6140    0.0230   10.3440 C.3    83  GLU83       0.0402
     16  CG         7.2960    0.1150    9.5920 C.3    83  GLU83       0.1161
     17  CD         7.0060   -1.1230    8.7670 C.2    83  GLU83       0.3649
     18  OE1        6.4010   -0.9870    7.6820 O.co2  83  GLU83      -0.2457
     19  OE2        7.3810   -2.2310    9.2030 O.co2  83  GLU83      -0.2457
     20  N         10.6690    0.6020   12.8810 N.am   84  THR84      -0.1939
     21  CA        11.2610    0.0140   14.0780 C.3    84  THR84       0.2028
     22  C         12.1220    0.9360   14.9470 C.2    84  THR84       0.2642
     23  O         12.6360    0.5040   15.9810 O.2    84  THR84      -0.2714
     24  CB        12.1220   -1.1890   13.6940 C.3    84  THR84       0.1808
     25  OG1       13.2970   -0.7270   13.0160 O.3    84  THR84      -0.2208
     26  CG2       11.3520   -2.1180   12.7690 C.3    84  THR84       0.0379
     27  N         12.2930    2.1870   14.5280 N.am   85  TYR85      -0.1973
     28  CA        13.0940    3.1560   15.2830 C.3    85  TYR85       0.1639
     29  C         14.5880    2.8430   15.2650 C.2    85  TYR85       0.2290
     30  O         15.3520    3.4240   16.0360 O.2    85  TYR85      -0.2864
     31  CB        12.6370    3.2130   16.7410 C.3    85  TYR85       0.0560
     32  CG        11.4160    4.0690   17.0070 C.ar   85  TYR85      -0.0198
     33  CD1       10.1350    3.5260   16.9420 C.ar   85  TYR85      -0.0009
     34  CD2       11.5440    5.4020   17.3910 C.ar   85  TYR85      -0.0009
     35  CE1        9.0130    4.2840   17.2620 C.ar   85  TYR85       0.0417
     36  CE2       10.4270    6.1700   17.7120 C.ar   85  TYR85       0.0417
     37  CZ         9.1690    5.6030   17.6480 C.ar   85  TYR85       0.1957
     38  OH         8.0700    6.3470   17.9910 O.3    85  TYR85      -0.2866
     39  N          8.8380   -4.6790   21.4140 N.3   162  PHE162     -0.1227
     40  CA         9.3900   -4.4980   20.0780 C.3   162  PHE162      0.1736
     41  C         10.8840   -4.7930   20.0780 C.2   162  PHE162      0.2595
     42  O         11.5260   -4.7580   21.1220 O.2   162  PHE162     -0.2718
     43  CB         9.0970   -3.0800   19.6030 C.3   162  PHE162      0.0547
     44  CG         7.6380   -2.7310   19.6600 C.ar  162  PHE162     -0.0202
     45  CD1        6.8250   -2.9050   18.5440 C.ar  162  PHE162     -0.0042
     46  CD2        7.0600   -2.2910   20.8460 C.ar  162  PHE162     -0.0042
     47  CE1        5.4470   -2.6490   18.6130 C.ar  162  PHE162     -0.0003
     48  CE2        5.6850   -2.0340   20.9260 C.ar  162  PHE162     -0.0003
     49  CZ         4.8790   -2.2140   19.8090 C.ar  162  PHE162     -0.0000
     50  N         11.4340   -5.0920   18.9070 N.am  163  ILE163     -0.1980
     51  CA        12.8490   -5.4260   18.7880 C.3   163  ILE163      0.1595
     52  C         13.8300   -4.3530   19.2550 C.2   163  ILE163      0.2287
     53  O         13.7790   -3.2070   18.8060 O.2   163  ILE163     -0.2864
     54  CB        13.2070   -5.8160   17.3310 C.3   163  ILE163      0.0276
     55  CG1       12.2540   -6.9100   16.8300 C.3   163  ILE163      0.0022
     56  CG2       14.6380   -6.3120   17.2620 C.3   163  ILE163      0.0022
     57  CD1       12.1670   -8.1310   17.7330 C.3   163  ILE163      0.0001
     58  N         10.8260    8.6240   34.2950 N.3   179  ASP179     -0.1225
     59  CA        11.2330    8.2330   32.9550 C.3   179  ASP179      0.1805
     60  C         11.0640    9.3730   31.9540 C.2   179  ASP179      0.2598
     61  O         10.2480   10.2690   32.1510 O.2   179  ASP179     -0.2718
     62  CB        10.3950    7.0280   32.5210 C.3   179  ASP179      0.1424
     63  CG        10.7360    6.5450   31.1400 C.2   179  ASP179      0.3668
     64  OD1       11.8770    6.7860   30.6960 O.co2 179  ASP179     -0.2456
     65  OD2        9.8630    5.9220   30.4960 O.co2 179  ASP179     -0.2456
     66  N         11.8460    9.3470   30.8810 N.am  180  ALA180     -0.1966
     67  CA        11.7230   10.3760   29.8660 C.3   180  ALA180      0.1728
     68  C         10.3310   10.1800   29.3010 C.2   180  ALA180      0.2616
     69  O          9.5880    9.3220   29.7720 O.2   180  ALA180     -0.2715
     70  CB        12.7720   10.1850   28.7820 C.3   180  ALA180      0.0334
     71  N          9.9750   10.9620   28.2920 N.am  181  CYS181     -0.1954
     72  CA         8.6510   10.8490   27.6970 C.3   181  CYS181      0.1843
     73  C          8.5830   11.6030   26.3720 C.2   181  CYS181      0.2625
     74  O          9.5820   12.1450   25.9100 O.2   181  CYS181     -0.2714
     75  CB         7.6030   11.3880   28.6760 C.3   181  CYS181      0.0997
     76  SG         5.8850   10.8910   28.3270 S.3   181  CYS181     -0.0797
     77  N          7.4060   11.6200   25.7560 N.am  182  GLN182     -0.1977
     78  CA         7.2270   12.3120   24.4840 C.3   182  GLN182      0.1601
     79  C          7.6370   13.7760   24.6140 C.2   182  GLN182      0.2287
     80  O          7.3060   14.4370   25.5990 O.2   182  GLN182     -0.2864
     81  CB         5.7690   12.2220   24.0420 C.3   182  GLN182      0.0394
     82  CG         5.5910   12.0130   22.5580 C.3   182  GLN182      0.0908
     83  CD         4.1470   11.7510   22.1900 C.2   182  GLN182      0.2608
     84  OE1        3.7910   10.6560   21.7350 O.2   182  GLN182     -0.2717
     85  NE2        3.3000   12.7550   22.3850 N.am  182  GLN182     -0.0878
     86  N         12.2330   13.3390   23.3130 N.3   185  SER185     -0.1217
     87  CA        12.8690   12.6230   22.2070 C.3   185  SER185      0.1889
     88  C         13.9290   13.4360   21.4800 C.2   185  SER185      0.2288
     89  O         13.7500   14.6270   21.2470 O.2   185  SER185     -0.2866
     90  CB        11.8070   12.1590   21.2100 C.3   185  SER185      0.2089
     91  OG        10.7130   11.5630   21.8820 O.3   185  SER185     -0.2183
     92  N         17.5350   10.1600   23.4540 N.3   203  VAL203     -0.1231
     93  CA        16.2160    9.6870   23.8280 C.3   203  VAL203      0.1692
     94  C         15.5570    9.2400   22.5220 C.2   203  VAL203      0.2593
     95  O         15.3940   10.0340   21.5920 O.2   203  VAL203     -0.2718
     96  CB        15.3870   10.8110   24.4790 C.3   203  VAL203      0.0266
     97  CG1       14.0010   10.3000   24.8300 C.3   203  VAL203      0.0020
     98  CG2       16.0830   11.3080   25.7220 C.3   203  VAL203      0.0020
     99  N         15.1950    7.9640   22.4510 N.am  204  SER204     -0.1938
    100  CA        14.5790    7.4090   21.2450 C.3   204  SER204      0.2055
    101  C         13.0780    7.1490   21.3650 C.2   204  SER204      0.2643
    102  O         12.2650    7.8260   20.7260 O.2   204  SER204     -0.2714
    103  CB        15.2850    6.1040   20.8520 C.3   204  SER204      0.2130
    104  OG        15.2950    5.9230   19.4450 O.3   204  SER204     -0.2179
    105  N         12.7080    6.1650   22.1760 N.am  205  TRP205     -0.1959
    106  CA        11.3030    5.8300   22.3360 C.3   205  TRP205      0.1771
    107  C         11.0390    5.0740   23.6190 C.2   205  TRP205      0.2620
    108  O         11.9230    4.9120   24.4550 O.2   205  TRP205     -0.2715
    109  CB        10.8310    4.9830   21.1520 C.3   205  TRP205      0.0590
    110  CG        11.6150    3.7010   20.9410 C.ar  205  TRP205      0.0006
    111  CD1       12.7930    3.5600   20.2590 C.ar  205  TRP205      0.0946
    112  CD2       11.2310    2.3760   21.3500 C.ar  205  TRP205      0.0152
    113  NE1       13.1620    2.2350   20.2130 N.ar  205  TRP205     -0.2442
    114  CE2       12.2230    1.4870   20.8720 C.ar  205  TRP205      0.0810
    115  CE3       10.1450    1.8560   22.0690 C.ar  205  TRP205      0.0012
    116  CZ2       12.1600    0.1040   21.0910 C.ar  205  TRP205      0.0191
    117  CZ3       10.0830    0.4790   22.2860 C.ar  205  TRP205      0.0001
    118  CH2       11.0870   -0.3790   21.7970 C.ar  205  TRP205      0.0015
    119  N          9.8060    4.6060   23.7600 N.am  206  GLY206     -0.1940
    120  CA         9.4230    3.8500   24.9340 C.3   206  GLY206      0.2014
    121  C          7.9780    3.4380   24.7900 C.2   206  GLY206      0.2639
    122  O          7.2460    4.0310   23.9990 O.2   206  GLY206     -0.2714
    123  N          7.5620    2.4130   25.5240 N.am  207  GLU207     -0.1963
    124  CA         6.1760    1.9790   25.4570 C.3   207  GLU207      0.1733
    125  C          5.4440    2.8170   26.4810 C.2   207  GLU207      0.2617
    126  O          5.3680    2.4630   27.6560 O.2   207  GLU207     -0.2715
    127  CB         6.0520    0.4960   25.7910 C.3   207  GLU207      0.0429
    128  CG         6.1590   -0.4000   24.5720 C.3   207  GLU207      0.1163
    129  CD         6.6690   -1.7760   24.9230 C.2   207  GLU207      0.3649
    130  OE1        5.9160   -2.5450   25.5570 O.co2 207  GLU207     -0.2457
    131  OE2        7.8250   -2.0870   24.5690 O.co2 207  GLU207     -0.2457
    132  N          4.9080    3.9430   26.0240 N.am  208  GLY208     -0.1940
    133  CA         4.2300    4.8360   26.9360 C.3   208  GLY208      0.2014
    134  C          5.3220    5.6140   27.6410 C.2   208  GLY208      0.2639
    135  O          6.3370    5.9430   27.0300 O.2   208  GLY208     -0.2714
    136  N          5.1370    5.8990   28.9220 N.am  209  CYS209     -0.1967
    137  CA         6.1330    6.6470   29.6750 C.3   209  CYS209      0.1712
    138  C          6.1380    6.2290   31.1350 C.2   209  CYS209      0.2296
    139  O          5.1440    6.4050   31.8420 O.2   209  CYS209     -0.2864
    140  CB         5.8530    8.1510   29.5920 C.3   209  CYS209      0.0983
    141  SG         6.0200    8.9000   27.9400 S.3   209  CYS209     -0.0798
    142  N          6.0440    3.3440   32.3280 N.3   211  ARG211     -0.1245
    143  CA         5.1810    2.1930   32.5790 C.3   211  ARG211      0.1563
    144  C          5.9540    1.0840   33.2970 C.2   211  ARG211      0.2260
    145  O          7.1730    0.9580   33.1350 O.2   211  ARG211     -0.2867
    146  CB         4.6350    1.6460   31.2680 C.3   211  ARG211      0.0307
    147  CG         3.8460    2.6360   30.4590 C.3   211  ARG211      0.0489
    148  CD         3.1560    1.9340   29.3040 C.3   211  ARG211      0.2205
    149  NE         2.0770    2.7470   28.7610 N.pl3 211  ARG211     -0.0865
    150  CZ         1.5800    2.6100   27.5380 C.cat 211  ARG211      0.5346
    151  NH1        2.0640    1.6840   26.7180 N.pl3 211  ARG211      0.1354
    152  NH2        0.6060    3.4120   27.1290 N.pl3 211  ARG211      0.1354
    153  N         13.0810    2.9270   29.2340 N.3   216  GLY216     -0.1210
    154  CA        13.2830    3.9930   28.2730 C.3   216  GLY216      0.1956
    155  C         14.3230    3.5060   27.2930 C.2   216  GLY216      0.2611
    156  O         15.3590    2.9880   27.7100 O.2   216  GLY216     -0.2717
    157  N         14.0610    3.6470   25.9990 N.am  217  ILE217     -0.1979
    158  CA        15.0200    3.1890   25.0090 C.3   217  ILE217      0.1595
    159  C         15.7490    4.3500   24.3460 C.2   217  ILE217      0.2287
    160  O         15.1340    5.2790   23.8270 O.2   217  ILE217     -0.2864
    161  CB        14.3560    2.3360   23.9130 C.3   217  ILE217      0.0276
    162  CG1       13.1830    1.5350   24.5030 C.3   217  ILE217      0.0022
    163  CG2       15.4110    1.4360   23.2640 C.3   217  ILE217      0.0022
    164  CD1       13.5890    0.3000   25.2780 C.3   217  ILE217      0.0001
@<TRIPOS>BOND
     1    18    17   ar
     2    17    19   ar
     3    17    16    1
     4    16    15    1
     5    15    12    1
     6    11    12    1
     7    12    13    1
     8    13    20   am
     9    13    14    2
    10    26    24    1
    11    20    21    1
    12    25    24    1
    13    24    21    1
    14     2     1    1
    15     2     3    1
    16     2     5    1
    17     4     3    2
    18    21    22    1
    19    27    22   am
    20    27    28    1
    21     5     6    1
    22    22    23    2
    23    29    28    1
    24    29    30    2
    25    28    31    1
    26     6     8   ar
    27     6     7   ar
    28     8    10   ar
    29    31    32    1
    30    55    54    1
    31    55    57    1
    32    33    32   ar
    33    33    35   ar
    34    32    34   ar
    35    56    54    1
    36    35    37   ar
    37     7     9   ar
    38    54    51    1
    39    34    36   ar
    40    37    36   ar
    41    37    38    1
    42    10     9   ar
    43    45    47   ar
    44    45    44   ar
    45    47    49   ar
    46    51    50    1
    47    51    52    1
    48    53    52    2
    49    50    41   am
    50   104   103    1
    51    43    44    1
    52    43    40    1
    53    44    46   ar
    54    49    48   ar
    55    41    40    1
    56    41    42    2
    57    40    39    1
    58   113   111   ar
    59   113   114   ar
    60   111   110   ar
    61   102   101    2
    62    46    48   ar
    63   103   100    1
    64   114   116   ar
    65   114   112   ar
    66   110   109    1
    67   110   112   ar
    68   116   118   ar
    69   109   106    1
    70    90    91    1
    71    90    87    1
    72   100   101    1
    73   100    99    1
    74    89    88    2
    75   112   115   ar
    76   101   105   am
    77    88    87    1
    78    95    94    2
    79    84    83    2
    80   118   117   ar
    81   115   117   ar
    82   105   106    1
    83    83    85   am
    84    83    82    1
    85    87    86    1
    86   106   107    1
    87    99    94   am
    88    94    93    1
    89    82    81    1
    90   163   161    1
    91    92    93    1
    92   107   119   am
    93   107   108    2
    94   119   120    1
    95   160   159    2
    96    93    96    1
    97   161   162    1
    98   161   158    1
    99   122   121    2
   100    81    78    1
   101   159   158    1
   102    96    97    1
   103    96    98    1
   104    78    79    1
   105    78    77    1
   106   162   164    1
   107   131   129   ar
   108   128   129    1
   109   128   127    1
   110    79    80    2
   111   121   120    1
   112   121   123   am
   113   129   130   ar
   114   158   157    1
   115   124   123    1
   116   124   127    1
   117   124   125    1
   118    77    73   am
   119    74    73    2
   120   157   155   am
   121   132   125   am
   122   132   133    1
   123    73    72    1
   124   125   126    2
   125   151   150    1
   126   133   134    1
   127   135   134    2
   128   152   150    1
   129   155   156    2
   130   155   154    1
   131   150   149    2
   132   134   136   am
   133    72    71    1
   134    72    75    1
   135   141    76    1
   136   141   140    1
   137   154   153    1
   138    71    68   am
   139    76    75    1
   140   149   148    1
   141    70    67    1
   142   136   137    1
   143    68    69    2
   144    68    67    1
   145   148   147    1
   146   140   137    1
   147   137   138    1
   148    67    66    1
   149   147   146    1
   150    65    63   ar
   151    64    63   ar
   152    66    60   am
   153   138   139    2
   154    63    62    1
   155   146   143    1
   156    60    61    2
   157    60    59    1
   158   142   143    1
   159    62    59    1
   160   143   144    1
   161    59    58    1
   162   145   144    2
