@<TRIPOS>MOLECULE
tmp/1f0tA00.pdb
 169 168 0 0 0
SMALL
GASTEIGER

@<TRIPOS>ATOM
      1  N         23.2590   -8.1680   19.8140 N.3    40  HIS40      -0.1241
      2  CA        22.2010   -8.1990   18.8100 C.3    40  HIS40       0.1621
      3  C         22.1020   -6.9130   17.9870 C.2    40  HIS40       0.2264
      4  O         21.3030   -6.8230   17.0510 O.2    40  HIS40      -0.2867
      5  CB        20.8500   -8.5750   19.4520 C.3    40  HIS40       0.0745
      6  CG        20.1270   -7.4410   20.1180 C.ar   40  HIS40       0.0817
      7  ND1       20.0860   -7.2890   21.4880 N.ar   40  HIS40      -0.2268
      8  CD2       19.3230   -6.4730   19.6110 C.ar   40  HIS40       0.1154
      9  CE1       19.2870   -6.2840   21.7990 C.ar   40  HIS40       0.1986
     10  NE2       18.8100   -5.7720   20.6770 N.ar   40  HIS40      -0.2212
     11  N         21.8110  -15.8970   19.7330 N.3    78  SER78      -0.1202
     12  CA        20.7270  -15.0530   19.2370 C.3    78  SER78       0.2020
     13  C         19.3310  -15.5590   19.5780 C.2    78  SER78       0.2619
     14  O         18.3740  -14.7860   19.5730 O.2    78  SER78      -0.2717
     15  CB        20.8410  -14.8950   17.7240 C.3    78  SER78       0.2103
     16  OG        20.9610  -16.1600   17.1010 O.3    78  SER78      -0.2182
     17  N         19.2090  -16.8500   19.8680 N.am   79  ASN79      -0.1960
     18  CA        17.9060  -17.4220   20.2000 C.3    79  ASN79       0.1819
     19  C         17.4610  -17.1040   21.6260 C.2    79  ASN79       0.2622
     20  O         16.2820  -16.8600   21.8650 O.2    79  ASN79      -0.2715
     21  CB        17.9170  -18.9440   20.0050 C.3    79  ASN79       0.1195
     22  CG        17.9310  -19.3540   18.5330 C.2    79  ASN79       0.2630
     23  OD1       18.6740  -20.2580   18.1390 O.2    79  ASN79      -0.2716
     24  ND2       17.1110  -18.6910   17.7170 N.am   79  ASN79      -0.0877
     25  N         18.4040  -17.1120   22.5650 N.am   80  THR80      -0.1937
     26  CA        18.1020  -16.8370   23.9700 C.3    80  THR80       0.2028
     27  C         18.5650  -15.4490   24.4140 C.2    80  THR80       0.2642
     28  O         18.1640  -14.9640   25.4740 O.2    80  THR80      -0.2714
     29  CB        18.7850  -17.8640   24.8940 C.3    80  THR80       0.1808
     30  OG1       20.2060  -17.7310   24.7770 O.3    80  THR80      -0.2208
     31  CG2       18.3870  -19.2830   24.5110 C.3    80  THR80       0.0379
     32  N         19.4100  -14.8250   23.5970 N.am   81  LEU81      -0.1977
     33  CA        19.9710  -13.5090   23.8880 C.3    81  LEU81       0.1596
     34  C         20.9160  -13.5560   25.0920 C.2    81  LEU81       0.2287
     35  O         21.1800  -12.5410   25.7380 O.2    81  LEU81      -0.2864
     36  CB        18.8550  -12.4730   24.1040 C.3    81  LEU81       0.0297
     37  CG        18.2050  -11.9640   22.8040 C.3    81  LEU81       0.0022
     38  CD1       17.2050  -10.8560   23.1160 C.3    81  LEU81       0.0001
     39  CD2       19.2770  -11.4620   21.8430 C.3    81  LEU81       0.0001
     40  N         13.4930  -18.0500   30.9560 N.3   155  GLN155     -0.1245
     41  CA        14.2150  -17.2040   30.0080 C.3   155  GLN155      0.1566
     42  C         15.3030  -16.3330   30.6200 C.2   155  GLN155      0.2260
     43  O         15.9930  -15.6110   29.9040 O.2   155  GLN155     -0.2867
     44  CB        13.2370  -16.3030   29.2580 C.3   155  GLN155      0.0367
     45  CG        12.1390  -17.0360   28.5270 C.3   155  GLN155      0.0905
     46  CD        11.2610  -16.0900   27.7370 C.2   155  GLN155      0.2608
     47  OE1       10.3090  -15.5220   28.2670 O.2   155  GLN155     -0.2717
     48  NE2       11.5830  -15.9120   26.4610 N.am  155  GLN155     -0.0878
     49  N          9.6070    2.0180   30.9120 N.3   171  ASP171     -0.1225
     50  CA        10.4870    0.9430   30.4740 C.3   171  ASP171      0.1805
     51  C         11.3560    1.4390   29.3240 C.2   171  ASP171      0.2598
     52  O         11.1800    2.5600   28.8440 O.2   171  ASP171     -0.2718
     53  CB         9.6110   -0.2170   29.9860 C.3   171  ASP171      0.1424
     54  CG        10.3560   -1.5330   29.8800 C.2   171  ASP171      0.3668
     55  OD1       11.5220   -1.6220   30.3150 O.co2 171  ASP171     -0.2456
     56  OD2        9.7520   -2.4910   29.3500 O.co2 171  ASP171     -0.2456
     57  N         12.3170    0.6170   28.9080 N.am  172  SER172     -0.1938
     58  CA        13.1350    0.9530   27.7520 C.3   172  SER172      0.2055
     59  C         12.3510    0.2580   26.6330 C.2   172  SER172      0.2643
     60  O         11.4080   -0.4880   26.9090 O.2   172  SER172     -0.2714
     61  CB        14.5610    0.3900   27.8730 C.3   172  SER172      0.2130
     62  OG        14.5690   -0.9560   28.3180 O.3   172  SER172     -0.2179
     63  N         12.7190    0.4890   25.3820 N.am  173  CYS173     -0.1953
     64  CA        11.9770   -0.1100   24.2760 C.3   173  CYS173      0.1843
     65  C         12.8800   -0.2770   23.0520 C.2   173  CYS173      0.2625
     66  O         14.0830   -0.0410   23.1330 O.2   173  CYS173     -0.2714
     67  CB        10.7770    0.7940   23.9480 C.3   173  CYS173      0.0997
     68  SG         9.4050    0.0300   23.0270 S.3   173  CYS173     -0.0797
     69  N         12.3120   -0.6850   21.9230 N.am  174  GLN174     -0.1977
     70  CA        13.1280   -0.8570   20.7330 C.3   174  GLN174      0.1601
     71  C         13.8170    0.4660   20.3720 C.2   174  GLN174      0.2287
     72  O         13.2080    1.5370   20.4350 O.2   174  GLN174     -0.2864
     73  CB        12.2790   -1.3720   19.5670 C.3   174  GLN174      0.0394
     74  CG        11.2370   -0.4080   19.0610 C.3   174  GLN174      0.0908
     75  CD        10.0820   -1.1230   18.3860 C.2   174  GLN174      0.2608
     76  OE1       10.2870   -2.0200   17.5660 O.2   174  GLN174     -0.2717
     77  NE2        8.8590   -0.7340   18.7330 N.am  174  GLN174     -0.0878
     78  N         18.1360   -0.4980   22.7480 N.3   177  SER177     -0.1217
     79  CA        19.0720   -1.6130   22.8760 C.3   177  SER177      0.1889
     80  C         20.5430   -1.2190   22.7660 C.2   177  SER177      0.2288
     81  O         20.9160   -0.3910   21.9370 O.2   177  SER177     -0.2866
     82  CB        18.7480   -2.6800   21.8360 C.3   177  SER177      0.2089
     83  OG        17.6130   -3.4130   22.2430 O.3   177  SER177     -0.2183
     84  N         20.9440   -2.4040   27.7750 N.3   191  VAL191     -0.1231
     85  CA        19.5700   -2.6680   27.3520 C.3   191  VAL191      0.1692
     86  C         19.5770   -3.8650   26.3890 C.2   191  VAL191      0.2593
     87  O         20.2170   -3.8210   25.3340 O.2   191  VAL191     -0.2718
     88  CB        18.9680   -1.4390   26.6340 C.3   191  VAL191      0.0266
     89  CG1       17.5540   -1.7410   26.1690 C.3   191  VAL191      0.0020
     90  CG2       18.9870   -0.2290   27.5680 C.3   191  VAL191      0.0020
     91  N         18.8660   -4.9330   26.7480 N.am  192  SER192     -0.1938
     92  CA        18.8400   -6.1260   25.9110 C.3   192  SER192      0.2055
     93  C         17.4650   -6.4820   25.3400 C.2   192  SER192      0.2643
     94  O         17.2590   -6.4240   24.1270 O.2   192  SER192     -0.2714
     95  CB        19.4100   -7.3110   26.6980 C.3   192  SER192      0.2130
     96  OG        19.5900   -8.4370   25.8580 O.3   192  SER192     -0.2179
     97  N         16.5200   -6.8590   26.1950 N.am  193  TRP193     -0.1959
     98  CA        15.1900   -7.2090   25.7010 C.3   193  TRP193      0.1771
     99  C         14.0840   -7.0680   26.7310 C.2   193  TRP193      0.2620
    100  O         14.2980   -6.5680   27.8300 O.2   193  TRP193     -0.2715
    101  CB        15.1790   -8.6390   25.1490 C.3   193  TRP193      0.0590
    102  CG        15.5060   -9.6990   26.1600 C.ar  193  TRP193      0.0006
    103  CD1       16.7490  -10.0800   26.5720 C.ar  193  TRP193      0.0946
    104  CD2       14.5770  -10.5270   26.8740 C.ar  193  TRP193      0.0152
    105  NE1       16.6560  -11.0930   27.4970 N.ar  193  TRP193     -0.2442
    106  CE2       15.3340  -11.3880   27.7020 C.ar  193  TRP193      0.0810
    107  CE3       13.1790  -10.6250   26.8950 C.ar  193  TRP193      0.0012
    108  CZ2       14.7400  -12.3380   28.5460 C.ar  193  TRP193      0.0191
    109  CZ3       12.5850  -11.5710   27.7350 C.ar  193  TRP193      0.0001
    110  CH2       13.3680  -12.4140   28.5480 C.ar  193  TRP193      0.0015
    111  N         12.8960   -7.5160   26.3420 N.am  194  GLY194     -0.1940
    112  CA        11.7290   -7.4670   27.2010 C.3   194  GLY194      0.2014
    113  C         10.5740   -7.9350   26.3400 C.2   194  GLY194      0.2640
    114  O         10.7460   -8.0870   25.1360 O.2   194  GLY194     -0.2714
    115  N          9.4150   -8.1840   26.9370 N.am  195  SER195     -0.1935
    116  CA         8.2460   -8.6160   26.1770 C.3   195  SER195      0.2055
    117  C          7.3890   -7.3740   25.9790 C.2   195  SER195      0.2644
    118  O          6.7110   -6.9250   26.9040 O.2   195  SER195     -0.2714
    119  CB         7.4730   -9.6710   26.9580 C.3   195  SER195      0.2130
    120  OG         6.5460  -10.3170   26.1150 O.3   195  SER195     -0.2179
    121  N          7.4190   -6.8230   24.7690 N.am  196  GLY196     -0.1939
    122  CA         6.6940   -5.5940   24.5030 C.3   196  GLY196      0.2014
    123  C          7.4530   -4.5060   25.2530 C.2   196  GLY196      0.2639
    124  O          8.6250   -4.7000   25.5810 O.2   196  GLY196     -0.2714
    125  N          6.8130   -3.3740   25.5290 N.am  197  CYS197     -0.1967
    126  CA         7.4620   -2.2930   26.2730 C.3   197  CYS197      0.1712
    127  C          6.5050   -1.6660   27.2780 C.2   197  CYS197      0.2296
    128  O          5.3700   -1.3330   26.9410 O.2   197  CYS197     -0.2864
    129  CB         7.9500   -1.1910   25.3390 C.3   197  CYS197      0.0983
    130  SG         9.0500   -1.7190   23.9930 S.3   197  CYS197     -0.0798
    131  N          5.9400   -7.2360   33.0640 N.3   202  LYS202     -0.1231
    132  CA         6.9330   -7.6070   32.0730 C.3   202  LYS202      0.1678
    133  C          7.9860   -6.5110   32.0350 C.2   202  LYS202      0.2434
    134  O          8.0100   -5.6850   31.1230 O.2   202  LYS202     -0.2733
    135  CB         6.2840   -7.7640   30.7020 C.3   202  LYS202      0.0284
    136  CG         5.4810   -9.0390   30.5630 C.3   202  LYS202      0.0035
    137  CD         4.3550   -8.8380   29.5710 C.3   202  LYS202      0.0206
    138  CE         3.8510  -10.1680   29.0270 C.3   202  LYS202      0.1093
    139  NZ         3.4650  -10.0820   27.5810 N.3   202  LYS202     -0.1314
    140  N          8.8780   -6.4960   33.0360 N.am  203  PRO203     -0.2718
    141  CA         9.9280   -5.4760   33.0900 C.3   203  PRO203      0.1535
    142  C         10.9930   -5.6770   32.0130 C.2   203  PRO203      0.2599
    143  O         10.9870   -6.6750   31.2880 O.2   203  PRO203     -0.2715
    144  CB        10.4910   -5.6210   34.5030 C.3   203  PRO203      0.0310
    145  CG        10.2550   -7.0570   34.8460 C.3   203  PRO203      0.0237
    146  CD         8.9700   -7.4480   34.1580 C.3   203  PRO203      0.0939
    147  N         11.9000   -4.7170   31.9030 N.am  204  GLY204     -0.1941
    148  CA        12.9610   -4.8350   30.9240 C.3   204  GLY204      0.2014
    149  C         14.0290   -5.7880   31.4270 C.2   204  GLY204      0.2639
    150  O         14.2210   -5.9320   32.6320 O.2   204  GLY204     -0.2714
    151  N         14.7060   -6.4590   30.5000 N.am  205  VAL205     -0.1963
    152  CA        15.7790   -7.3860   30.8410 C.3   205  VAL205      0.1727
    153  C         17.0880   -6.8040   30.3160 C.2   205  VAL205      0.2616
    154  O         17.1620   -6.3140   29.1850 O.2   205  VAL205     -0.2715
    155  CB        15.5430   -8.7800   30.2390 C.3   205  VAL205      0.0290
    156  CG1       16.6080   -9.7450   30.7440 C.3   205  VAL205      0.0023
    157  CG2       14.1600   -9.2800   30.6270 C.3   205  VAL205      0.0023
    158  N         18.1180   -6.8630   31.1500 N.am  206  TYR206     -0.1974
    159  CA        19.4120   -6.2840   30.8170 C.3   206  TYR206      0.1639
    160  C         20.5850   -7.2190   31.0260 C.2   206  TYR206      0.2290
    161  O         20.5730   -8.0630   31.9210 O.2   206  TYR206     -0.2864
    162  CB        19.6260   -5.0160   31.6590 C.3   206  TYR206      0.0560
    163  CG        18.4970   -4.0160   31.5320 C.ar  206  TYR206     -0.0198
    164  CD1       18.5640   -2.9840   30.6040 C.ar  206  TYR206     -0.0009
    165  CD2       17.3360   -4.1380   32.3020 C.ar  206  TYR206     -0.0009
    166  CE1       17.5100   -2.1040   30.4330 C.ar  206  TYR206      0.0417
    167  CE2       16.2680   -3.2560   32.1390 C.ar  206  TYR206      0.0417
    168  CZ        16.3640   -2.2440   31.1970 C.ar  206  TYR206      0.1957
    169  OH        15.3080   -1.3890   30.9910 O.3   206  TYR206     -0.2866
@<TRIPOS>BOND
     1     4     3    2
     2    16    15    1
     3    76    75    2
     4    24    22   am
     5    15    12    1
     6     3     2    1
     7    23    22    2
     8    75    77   am
     9    75    74    1
    10    22    21    1
    11     2     5    1
    12     2     1    1
    13    74    73    1
    14    12    13    1
    15    12    11    1
    16     5     6    1
    17    73    70    1
    18    14    13    2
    19    13    17   am
    20     8     6   ar
    21     8    10   ar
    22    17    18    1
    23    21    18    1
    24     6     7   ar
    25    18    19    1
    26    71    72    2
    27    71    70    1
    28    10     9   ar
    29    70    69    1
    30     7     9   ar
    31    19    20    2
    32    19    25   am
    33    82    83    1
    34    82    79    1
    35    39    37    1
    36    69    65   am
    37    81    80    2
    38    25    26    1
    39    78    79    1
    40    80    79    1
    41    37    38    1
    42    37    36    1
    43    68    67    1
    44    68   130    1
    45    65    66    2
    46    65    64    1
    47    32    33    1
    48    32    27   am
    49    33    36    1
    50    33    34    1
    51    67    64    1
    52    26    27    1
    53    26    29    1
    54   130   129    1
    55    94    93    2
    56    64    63    1
    57    27    28    2
    58   122   121    1
    59   122   123    1
    60    31    29    1
    61   121   117   am
    62    30    29    1
    63    34    35    2
    64   114   113    2
    65   101    98    1
    66   101   102    1
    67   123   125   am
    68   123   124    2
    69    87    86    2
    70   129   126    1
    71    93    92    1
    72    93    97   am
    73    63    59   am
    74   125   126    1
    75    98    97    1
    76    98    99    1
    77    96    95    1
    78    92    95    1
    79    92    91    1
    80   117   116    1
    81   117   118    2
    82   120   119    1
    83   102   103   ar
    84   102   104   ar
    85    89    88    1
    86   116   115    1
    87   116   119    1
    88   126   127    1
    89   113   115   am
    90   113   112    1
    91   111    99   am
    92   111   112    1
    93    86    91   am
    94    86    85    1
    95    48    46   am
    96   103   105   ar
    97    59    60    2
    98    59    58    1
    99    88    85    1
   100    88    90    1
   101    99   100    2
   102   104   107   ar
   103   104   106   ar
   104   107   109   ar
   105   128   127    2
   106    85    84    1
   107   105   106   ar
   108   139   138    1
   109   106   108   ar
   110   109   110   ar
   111    46    47    2
   112    46    45    1
   113    58    61    1
   114    58    57    1
   115    61    62    1
   116    45    44    1
   117   108   110   ar
   118    52    51    2
   119    57    51   am
   120   138   137    1
   121   154   153    2
   122    44    41    1
   123    51    50    1
   124    56    54   ar
   125   137   136    1
   126    54    53    1
   127    54    55   ar
   128    43    42    2
   129    53    50    1
   130    41    42    1
   131    41    40    1
   132   155   157    1
   133   155   156    1
   134   155   152    1
   135   153   152    1
   136   153   158   am
   137   166   164   ar
   138   166   168   ar
   139    50    49    1
   140   151   152    1
   141   151   149   am
   142   136   135    1
   143   164   163   ar
   144   135   132    1
   145   159   160    1
   146   159   158    1
   147   159   162    1
   148   148   149    1
   149   148   147    1
   150   169   168    1
   151   160   161    2
   152   134   133    2
   153   168   167   ar
   154   143   142    2
   155   149   150    2
   156   163   162    1
   157   163   165   ar
   158   147   142   am
   159   142   141    1
   160   133   132    1
   161   133   140   am
   162   132   131    1
   163   167   165   ar
   164   140   141    1
   165   140   146    1
   166   141   144    1
   167   146   145    1
   168   144   145    1
