@<TRIPOS>MOLECULE
tmp/1f0uA00.pdb
 186 183 0 0 0
SMALL
GASTEIGER

@<TRIPOS>ATOM
      1  N         23.3720   -8.1260   19.6910 N.3    40  HIS40      -0.1241
      2  CA        22.3590   -8.1610   18.6580 C.3    40  HIS40       0.1621
      3  C         22.2660   -6.8430   17.9000 C.2    40  HIS40       0.2264
      4  O         21.4960   -6.7360   16.9520 O.2    40  HIS40      -0.2867
      5  CB        20.9770   -8.5210   19.2460 C.3    40  HIS40       0.0745
      6  CG        20.2070   -7.4630   20.0210 C.ar   40  HIS40       0.0817
      7  ND1       20.2180   -7.2660   21.3280 N.ar   40  HIS40      -0.2268
      8  CD2       19.3290   -6.5570   19.4730 C.ar   40  HIS40       0.1154
      9  CE1       19.3880   -6.2940   21.6160 C.ar   40  HIS40       0.1986
     10  NE2       18.8600   -5.8740   20.4860 N.ar   40  HIS40      -0.2212
     11  N         19.2370  -16.9880   19.8410 N.3    79  ASN79      -0.1225
     12  CA        17.9310  -17.5320   20.1740 C.3    79  ASN79       0.1785
     13  C         17.5530  -17.2500   21.6130 C.2    79  ASN79       0.2598
     14  O         16.3870  -17.0150   21.9060 O.2    79  ASN79      -0.2718
     15  CB        17.9100  -19.0400   19.9500 C.3    79  ASN79       0.1169
     16  CG        17.7630  -19.3930   18.4800 C.2    79  ASN79       0.2627
     17  OD1       18.6550  -19.2030   17.6600 O.2    79  ASN79      -0.2716
     18  ND2       16.5930  -19.9140   18.1250 N.am   79  ASN79      -0.0877
     19  N         18.5340  -17.2630   22.5200 N.am   80  THR80      -0.1939
     20  CA        18.2520  -17.0070   23.9220 C.3    80  THR80       0.2028
     21  C         18.6350  -15.6010   24.3760 C.2    80  THR80       0.2642
     22  O         18.2330  -15.1570   25.4460 O.2    80  THR80      -0.2714
     23  CB        19.0010  -18.0240   24.7910 C.3    80  THR80       0.1808
     24  OG1       20.3830  -17.8140   24.5650 O.3    80  THR80      -0.2208
     25  CG2       18.6490  -19.4640   24.4500 C.3    80  THR80       0.0379
     26  N         19.4260  -14.9230   23.5350 N.am   81  LEU81      -0.1977
     27  CA        20.0640  -13.6440   23.8110 C.3    81  LEU81       0.1596
     28  C         21.0150  -13.6960   24.9880 C.2    81  LEU81       0.2287
     29  O         21.3350  -12.6890   25.6100 O.2    81  LEU81      -0.2864
     30  CB        19.0130  -12.5390   24.0390 C.3    81  LEU81       0.0297
     31  CG        18.2710  -12.1780   22.7510 C.3    81  LEU81       0.0022
     32  CD1       17.2160  -11.1420   23.0530 C.3    81  LEU81       0.0001
     33  CD2       19.2390  -11.6070   21.7170 C.3    81  LEU81       0.0001
     34  N         12.0140    3.9840   20.9080 N.3   123  ASN123     -0.1240
     35  CA        10.5850    4.2440   20.8910 C.3   123  ASN123      0.1653
     36  C         10.0310    4.7280   22.2280 C.2   123  ASN123      0.2266
     37  O         10.3730    4.2160   23.2910 O.2   123  ASN123     -0.2867
     38  CB         9.9310    2.9510   20.4510 C.3   123  ASN123      0.1155
     39  CG         8.4740    3.0520   20.0520 C.2   123  ASN123      0.2627
     40  OD1        7.8670    4.1130   20.0140 O.2   123  ASN123     -0.2716
     41  ND2        7.8990    1.9000   19.7290 N.am  123  ASN123     -0.0877
     42  N          6.6610    4.9180   22.7110 N.3   125  LYS125     -0.1231
     43  CA         5.3220    4.3630   22.8240 C.3   125  LYS125      0.1693
     44  C          5.3150    2.8550   23.0030 C.2   125  LYS125      0.2592
     45  O          6.0690    2.1160   22.3780 O.2   125  LYS125     -0.2718
     46  CB         4.4980    4.6680   21.5880 C.3   125  LYS125      0.0285
     47  CG         4.1390    6.1320   21.4120 C.3   125  LYS125      0.0035
     48  CD         3.1710    6.2440   20.2460 C.3   125  LYS125      0.0206
     49  CE         2.6900    7.6770   20.0980 C.3   125  LYS125      0.1093
     50  NZ         1.7980    7.7910   18.9620 N.3   125  LYS125     -0.1314
     51  N          4.4240    2.3960   23.8830 N.am  126  SER126     -0.1952
     52  CA         4.2540    0.9680   24.1250 C.3   126  SER126      0.1924
     53  C          3.2830    0.3570   23.1310 C.2   126  SER126      0.2314
     54  O          3.2710   -0.8460   22.9070 O.2   126  SER126     -0.2863
     55  CB         3.7290    0.7350   25.5280 C.3   126  SER126      0.2116
     56  OG         2.6210    1.5770   25.8030 O.3   126  SER126     -0.2180
     57  N         13.5160  -18.1130   30.7780 N.3   155  GLN155     -0.1245
     58  CA        14.2400  -17.2750   29.8310 C.3   155  GLN155      0.1566
     59  C         15.3530  -16.4350   30.4290 C.2   155  GLN155      0.2260
     60  O         16.0850  -15.7970   29.6910 O.2   155  GLN155     -0.2867
     61  CB        13.2790  -16.3400   29.1560 C.3   155  GLN155      0.0367
     62  CG        12.1060  -17.0380   28.5130 C.3   155  GLN155      0.0905
     63  CD        11.0880  -16.0260   28.0230 C.2   155  GLN155      0.2608
     64  OE1       11.1890  -15.4990   26.9220 O.2   155  GLN155     -0.2717
     65  NE2       10.0830  -15.7170   28.8410 N.am  155  GLN155     -0.0878
     66  N          9.5750    2.0100   30.7550 N.3   171  ASP171     -0.1225
     67  CA        10.4990    0.9580   30.3510 C.3   171  ASP171      0.1805
     68  C         11.4310    1.4540   29.2540 C.2   171  ASP171      0.2598
     69  O         11.2370    2.5410   28.7240 O.2   171  ASP171     -0.2718
     70  CB         9.6910   -0.2290   29.8300 C.3   171  ASP171      0.1424
     71  CG        10.3820   -1.5820   29.6780 C.2   171  ASP171      0.3668
     72  OD1       11.5260   -1.7590   30.0920 O.co2 171  ASP171     -0.2456
     73  OD2        9.7480   -2.4790   29.1320 O.co2 171  ASP171     -0.2456
     74  N         12.4720    0.6910   28.9030 N.am  172  SER172     -0.1938
     75  CA        13.2290    0.9780   27.7060 C.3   172  SER172      0.2055
     76  C         12.4820    0.2590   26.5840 C.2   172  SER172      0.2643
     77  O         11.5280   -0.4680   26.8450 O.2   172  SER172     -0.2714
     78  CB        14.6640    0.4610   27.8470 C.3   172  SER172      0.2130
     79  OG        14.7560   -0.9140   28.2010 O.3   172  SER172     -0.2179
     80  N         12.8710    0.4100   25.3160 N.am  173  CYS173     -0.1953
     81  CA        12.1150   -0.1540   24.2120 C.3   173  CYS173      0.1843
     82  C         13.0200   -0.2750   22.9940 C.2   173  CYS173      0.2625
     83  O         14.1780    0.1250   23.0470 O.2   173  CYS173     -0.2714
     84  CB        10.9250    0.7690   23.9180 C.3   173  CYS173      0.0997
     85  SG         9.5950    0.0160   22.9530 S.3   173  CYS173     -0.0797
     86  N         12.5460   -0.8160   21.8670 N.am  174  GLN174     -0.1977
     87  CA        13.3750   -0.9250   20.6730 C.3   174  GLN174      0.1601
     88  C         14.0590    0.3920   20.2840 C.2   174  GLN174      0.2287
     89  O         13.4660    1.4620   20.3360 O.2   174  GLN174     -0.2864
     90  CB        12.5010   -1.4220   19.5340 C.3   174  GLN174      0.0394
     91  CG        11.2950   -0.5380   19.3080 C.3   174  GLN174      0.0908
     92  CD        10.2450   -1.1190   18.3760 C.2   174  GLN174      0.2608
     93  OE1        9.0690   -0.7580   18.4480 O.2   174  GLN174     -0.2717
     94  NE2       10.6290   -2.0240   17.4770 N.am  174  GLN174     -0.0878
     95  N         18.2210   -0.4460   22.6930 N.3   177  SER177     -0.1217
     96  CA        19.1350   -1.5820   22.7730 C.3   177  SER177      0.1889
     97  C         20.6020   -1.2300   22.6440 C.2   177  SER177      0.2288
     98  O         20.9830   -0.4230   21.8100 O.2   177  SER177     -0.2866
     99  CB        18.8140   -2.5780   21.6910 C.3   177  SER177      0.2089
    100  OG        17.4590   -2.9260   21.8600 O.3   177  SER177     -0.2183
    101  N         20.9900   -2.4090   27.7200 N.3   191  VAL191     -0.1231
    102  CA        19.6210   -2.6750   27.2790 C.3   191  VAL191      0.1692
    103  C         19.5890   -3.8730   26.3070 C.2   191  VAL191      0.2593
    104  O         20.2210   -3.8650   25.2530 O.2   191  VAL191     -0.2718
    105  CB        19.0440   -1.3990   26.5930 C.3   191  VAL191      0.0266
    106  CG1       17.5940   -1.6420   26.1860 C.3   191  VAL191      0.0020
    107  CG2       19.1260   -0.1970   27.5490 C.3   191  VAL191      0.0020
    108  N         18.8610   -4.9420   26.6310 N.am  192  SER192     -0.1938
    109  CA        18.8810   -6.1060   25.7650 C.3   192  SER192      0.2055
    110  C         17.5100   -6.4520   25.1960 C.2   192  SER192      0.2643
    111  O         17.3080   -6.3750   23.9850 O.2   192  SER192     -0.2714
    112  CB        19.4620   -7.2670   26.5730 C.3   192  SER192      0.2130
    113  OG        19.5980   -8.4560   25.8140 O.3   192  SER192     -0.2179
    114  N         16.5340   -6.8270   26.0340 N.am  193  TRP193     -0.1959
    115  CA        15.2260   -7.2210   25.5320 C.3   193  TRP193      0.1771
    116  C         14.1220   -7.0740   26.5590 C.2   193  TRP193      0.2620
    117  O         14.3220   -6.6070   27.6670 O.2   193  TRP193     -0.2715
    118  CB        15.2190   -8.6950   25.0510 C.3   193  TRP193      0.0590
    119  CG        15.4710   -9.7890   26.0980 C.ar  193  TRP193      0.0006
    120  CD1       16.7400  -10.1010   26.5170 C.ar  193  TRP193      0.0946
    121  CD2       14.5120  -10.5770   26.6960 C.ar  193  TRP193      0.0152
    122  NE1       16.5930  -11.0840   27.3730 N.ar  193  TRP193     -0.2442
    123  CE2       15.2930  -11.4020   27.5120 C.ar  193  TRP193      0.0810
    124  CE3       13.1210  -10.7330   26.6790 C.ar  193  TRP193      0.0012
    125  CZ2       14.6990  -12.3850   28.3160 C.ar  193  TRP193      0.0191
    126  CZ3       12.5240  -11.7150   27.4790 C.ar  193  TRP193      0.0001
    127  CH2       13.3100  -12.5340   28.2920 C.ar  193  TRP193      0.0015
    128  N         12.9300   -7.4920   26.1550 N.am  194  GLY194     -0.1940
    129  CA        11.7830   -7.4830   27.0320 C.3   194  GLY194      0.2014
    130  C         10.6320   -7.9130   26.1610 C.2   194  GLY194      0.2640
    131  O         10.7660   -7.9090   24.9430 O.2   194  GLY194     -0.2714
    132  N          9.5030   -8.3040   26.7430 N.am  195  SER195     -0.1935
    133  CA         8.3590   -8.6810   25.9400 C.3   195  SER195      0.2055
    134  C          7.5230   -7.4310   25.7090 C.2   195  SER195      0.2644
    135  O          6.8460   -6.9380   26.6070 O.2   195  SER195     -0.2714
    136  CB         7.5680   -9.7290   26.6840 C.3   195  SER195      0.2130
    137  OG         6.5180  -10.1880   25.8570 O.3   195  SER195     -0.2179
    138  N          7.5730   -6.8970   24.4850 N.am  196  GLY196     -0.1939
    139  CA         6.9220   -5.6310   24.1860 C.3   196  GLY196      0.2014
    140  C          7.6820   -4.5350   24.9310 C.2   196  GLY196      0.2639
    141  O          8.8640   -4.7130   25.2070 O.2   196  GLY196     -0.2714
    142  N          7.0170   -3.4330   25.2910 N.am  197  CYS197     -0.1967
    143  CA         7.6180   -2.3620   26.0700 C.3   197  CYS197      0.1712
    144  C          6.5900   -1.8320   27.0470 C.2   197  CYS197      0.2296
    145  O          5.4370   -1.6300   26.7000 O.2   197  CYS197     -0.2864
    146  CB         8.0560   -1.1870   25.2030 C.3   197  CYS197      0.0983
    147  SG         9.2550   -1.7060   23.9600 S.3   197  CYS197     -0.0798
    148  N          5.9160   -7.4040   32.7720 N.3   202  LYS202     -0.1231
    149  CA         6.9240   -7.7900   31.7950 C.3   202  LYS202      0.1678
    150  C          8.0210   -6.7210   31.8050 C.2   202  LYS202      0.2434
    151  O          8.0730   -5.8730   30.9160 O.2   202  LYS202     -0.2733
    152  CB         6.3160   -7.8780   30.3910 C.3   202  LYS202      0.0284
    153  CG         5.2540   -8.9570   30.1990 C.3   202  LYS202      0.0035
    154  CD         5.8850  -10.3320   30.3670 C.3   202  LYS202      0.0206
    155  CE         4.8620  -11.4250   30.1240 C.3   202  LYS202      0.1093
    156  NZ         5.4790  -12.7230   30.3260 N.3   202  LYS202     -0.1314
    157  N          8.9290   -6.6870   32.7890 N.am  203  PRO203     -0.2718
    158  CA         9.9610   -5.6620   32.8810 C.3   203  PRO203      0.1535
    159  C         11.0710   -5.7810   31.8420 C.2   203  PRO203      0.2599
    160  O         11.1590   -6.7490   31.0920 O.2   203  PRO203     -0.2715
    161  CB        10.4380   -5.8020   34.3120 C.3   203  PRO203      0.0310
    162  CG        10.3320   -7.2910   34.5770 C.3   203  PRO203      0.0237
    163  CD         8.9930   -7.6060   33.9300 C.3   203  PRO203      0.0939
    164  N         11.9590   -4.7910   31.7770 N.am  204  GLY204     -0.1941
    165  CA        13.0710   -4.8880   30.8520 C.3   204  GLY204      0.2014
    166  C         14.1070   -5.8810   31.3580 C.2   204  GLY204      0.2639
    167  O         14.2600   -6.0800   32.5550 O.2   204  GLY204     -0.2714
    168  N         14.8230   -6.5270   30.4330 N.am  205  VAL205     -0.1963
    169  CA        15.8880   -7.4650   30.7650 C.3   205  VAL205      0.1727
    170  C         17.1840   -6.9030   30.2010 C.2   205  VAL205      0.2616
    171  O         17.2620   -6.4170   29.0770 O.2   205  VAL205     -0.2715
    172  CB        15.6060   -8.8510   30.1620 C.3   205  VAL205      0.0290
    173  CG1       16.6440   -9.8650   30.6430 C.3   205  VAL205      0.0023
    174  CG2       14.2130   -9.2950   30.5850 C.3   205  VAL205      0.0023
    175  N         18.2260   -6.9990   31.0170 N.am  206  TYR206     -0.1974
    176  CA        19.4690   -6.3170   30.7380 C.3   206  TYR206      0.1639
    177  C         20.6440   -7.2510   30.8890 C.2   206  TYR206      0.2290
    178  O         20.6300   -8.1030   31.7620 O.2   206  TYR206     -0.2864
    179  CB        19.6080   -5.1340   31.7110 C.3   206  TYR206      0.0560
    180  CG        18.4820   -4.1230   31.5680 C.ar  206  TYR206     -0.0198
    181  CD1       18.6230   -3.1040   30.6300 C.ar  206  TYR206     -0.0009
    182  CD2       17.2930   -4.2270   32.3130 C.ar  206  TYR206     -0.0009
    183  CE1       17.5920   -2.1910   30.4180 C.ar  206  TYR206      0.0417
    184  CE2       16.2530   -3.3130   32.0990 C.ar  206  TYR206      0.0417
    185  CZ        16.4140   -2.3050   31.1470 C.ar  206  TYR206      0.1957
    186  OH        15.3950   -1.4330   30.8650 O.3   206  TYR206     -0.2866
@<TRIPOS>BOND
     1     4     3    2
     2    94    92   am
     3    17    16    2
     4     3     2    1
     5    18    16   am
     6    92    93    2
     7    92    91    1
     8    16    15    1
     9     2     5    1
    10     2     1    1
    11    50    49    1
    12     5     6    1
    13    91    90    1
    14     8     6   ar
    15     8    10   ar
    16    90    87    1
    17    41    39   am
    18    11    12    1
    19    15    12    1
    20    40    39    2
    21     6     7   ar
    22    39    38    1
    23    49    48    1
    24    12    13    1
    25    48    47    1
    26    88    89    2
    27    88    87    1
    28    38    35    1
    29    10     9   ar
    30    87    86    1
    31    35    34    1
    32    35    36    1
    33     7     9   ar
    34    47    46    1
    35    46    43    1
    36    13    14    2
    37    13    19   am
    38    99   100    1
    39    99    96    1
    40    33    31    1
    41    98    97    2
    42    86    82   am
    43    36    37    2
    44    45    44    2
    45    19    20    1
    46    97    96    1
    47    95    96    1
    48    42    43    1
    49    31    32    1
    50    31    30    1
    51    43    44    1
    52    54    53    2
    53    85    84    1
    54    85   147    1
    55    82    83    2
    56    82    81    1
    57    44    51   am
    58    53    52    1
    59    26    27    1
    60    26    21   am
    61    27    30    1
    62    27    28    1
    63    51    52    1
    64    84    81    1
    65    20    21    1
    66    20    23    1
    67   147   146    1
    68   111   110    2
    69    52    55    1
    70   139   138    1
    71   139   140    1
    72    81    80    1
    73    21    22    2
    74    25    23    1
    75   138   134   am
    76    24    23    1
    77   140   141    2
    78   140   142   am
    79   131   130    2
    80    28    29    2
    81   118   115    1
    82   118   119    1
    83   110   109    1
    84   110   114   am
    85   146   143    1
    86   104   103    2
    87   142   143    1
    88    80    76   am
    89    55    56    1
    90   115   114    1
    91   115   116    1
    92   134   133    1
    93   134   135    2
    94   109   112    1
    95   109   108    1
    96   113   112    1
    97   137   136    1
    98   133   136    1
    99   133   132    1
   100   143   144    1
   101   119   120   ar
   102   119   121   ar
   103   128   116   am
   104   128   129    1
   105   130   132   am
   106   130   129    1
   107   106   105    1
   108   103   108   am
   109   103   102    1
   110   120   122   ar
   111   116   117    2
   112    76    77    2
   113    76    75    1
   114   105   102    1
   115   105   107    1
   116   124   121   ar
   117   124   126   ar
   118   121   123   ar
   119   145   144    2
   120    64    63    2
   121   102   101    1
   122   122   123   ar
   123   126   127   ar
   124   123   125   ar
   125    75    78    1
   126    75    74    1
   127    78    79    1
   128    63    62    1
   129    63    65   am
   130   127   125   ar
   131    62    61    1
   132    69    68    2
   133    74    68   am
   134   171   170    2
   135    73    71   ar
   136    61    58    1
   137    68    67    1
   138    71    70    1
   139    71    72   ar
   140    60    59    2
   141    70    67    1
   142    58    59    1
   143    58    57    1
   144   155   156    1
   145   155   154    1
   146   172   174    1
   147   172   173    1
   148   172   169    1
   149   153   154    1
   150   153   152    1
   151   170   169    1
   152   170   175   am
   153    67    66    1
   154   152   149    1
   155   183   181   ar
   156   183   185   ar
   157   168   169    1
   158   168   166   am
   159   181   180   ar
   160   176   177    1
   161   176   175    1
   162   176   179    1
   163   165   166    1
   164   165   164    1
   165   186   185    1
   166   177   178    2
   167   151   150    2
   168   160   159    2
   169   185   184   ar
   170   166   167    2
   171   180   179    1
   172   180   182   ar
   173   164   159   am
   174   149   150    1
   175   149   148    1
   176   150   157   am
   177   159   158    1
   178   184   182   ar
   179   157   158    1
   180   157   163    1
   181   158   161    1
   182   163   162    1
   183   161   162    1
