@<TRIPOS>MOLECULE
tmp/1f12A00.pdb
 201 194 0 0 0
SMALL
GASTEIGER

@<TRIPOS>ATOM
      1  N         37.5090   39.4670   33.1170 N.3    15  MET15      -0.1245
      2  CA        36.8430   40.7610   33.2770 C.3    15  MET15       0.1570
      3  C         35.7870   40.9850   32.1880 C.2    15  MET15       0.2261
      4  O         34.6230   41.2820   32.4830 O.2    15  MET15      -0.2867
      5  CB        37.8630   41.9000   33.2130 C.3    15  MET15       0.0387
      6  CG        38.8840   41.9120   34.3360 C.3    15  MET15       0.0595
      7  SD        38.1440   42.2690   35.9260 S.3    15  MET15      -0.1393
      8  CE        37.4820   43.8920   35.6370 C.3    15  MET15       0.0692
      9  N         28.9830   30.2690   35.6790 N.3    50  SER50      -0.1217
     10  CA        28.7520   31.2640   36.7170 C.3    50  SER50       0.1889
     11  C         27.2730   31.5950   36.8420 C.2    50  SER50       0.2288
     12  O         26.7970   31.9260   37.9210 O.2    50  SER50      -0.2866
     13  CB        29.5140   32.5470   36.4250 C.3    50  SER50       0.2089
     14  OG        29.1130   33.5650   37.3300 O.3    50  SER50      -0.2183
     15  N         25.1960   28.8820   38.4930 N.3    53  LYS53      -0.1231
     16  CA        25.5950   28.9160   39.8920 C.3    53  LYS53       0.1693
     17  C         24.7120   29.9400   40.6120 C.2    53  LYS53       0.2591
     18  O         24.2680   29.7150   41.7380 O.2    53  LYS53      -0.2718
     19  CB        27.0750   29.3020   39.9730 C.3    53  LYS53       0.0285
     20  CG        27.7760   28.9890   41.2780 C.3    53  LYS53       0.0035
     21  CD        29.2710   29.2470   41.1300 C.3    53  LYS53       0.0206
     22  CE        30.0510   28.8590   42.3770 C.3    53  LYS53       0.1093
     23  NZ        31.5200   29.0360   42.1890 N.3    53  LYS53      -0.1314
     24  N         24.4500   31.0560   39.9420 N.am   54  VAL54      -0.1980
     25  CA        23.6140   32.1170   40.4880 C.3    54  VAL54       0.1595
     26  C         22.1450   31.7050   40.4770 C.2    54  VAL54       0.2287
     27  O         21.3710   32.1000   41.3470 O.2    54  VAL54      -0.2864
     28  CB        23.7480   33.3970   39.6540 C.3    54  VAL54       0.0276
     29  CG1       22.8890   34.4990   40.2410 C.3    54  VAL54       0.0022
     30  CG2       25.1960   33.8210   39.5880 C.3    54  VAL54       0.0022
     31  N         20.7530   28.9760   42.8290 N.3    57  LYS57      -0.1245
     32  CA        20.8700   29.6310   44.1170 C.3    57  LYS57       0.1561
     33  C         19.6580   30.5280   44.3540 C.2    57  LYS57       0.2260
     34  O         19.0860   30.5370   45.4430 O.2    57  LYS57      -0.2867
     35  CB        22.1480   30.4560   44.1330 C.3    57  LYS57       0.0271
     36  CG        22.3740   31.2550   45.3880 C.3    57  LYS57       0.0035
     37  CD        23.5840   32.1460   45.2030 C.3    57  LYS57       0.0206
     38  CE        23.7510   33.0970   46.3630 C.3    57  LYS57       0.1093
     39  NZ        24.7860   34.1200   46.0590 N.3    57  LYS57      -0.1314
     40  N         43.4850   49.2980   33.8620 N.3   126  SER126     -0.1217
     41  CA        43.8870   49.6050   35.2270 C.3   126  SER126      0.1889
     42  C         45.2440   50.2750   35.2820 C.2   126  SER126      0.2288
     43  O         45.5510   50.9680   36.2430 O.2   126  SER126     -0.2866
     44  CB        43.9480   48.3270   36.0600 C.3   126  SER126      0.2089
     45  OG        42.7230   47.6270   36.0040 O.3   126  SER126     -0.2183
     46  N         35.6580   51.3730   34.7550 N.3   147  HIS147     -0.1226
     47  CA        36.4510   50.3770   35.4530 C.3   147  HIS147      0.1752
     48  C         35.6770   49.4730   36.4030 C.2   147  HIS147      0.2596
     49  O         35.0350   49.9530   37.3290 O.2   147  HIS147     -0.2718
     50  CB        37.5480   51.1140   36.2100 C.3   147  HIS147      0.0759
     51  CG        38.6570   50.2330   36.6740 C.ar  147  HIS147      0.0818
     52  ND1       39.5410   50.6150   37.6590 N.ar  147  HIS147     -0.2268
     53  CD2       39.0580   49.0100   36.2620 C.ar  147  HIS147      0.1154
     54  CE1       40.4400   49.6630   37.8310 C.ar  147  HIS147      0.1986
     55  NE2       40.1700   48.6780   36.9970 N.ar  147  HIS147     -0.2212
     56  N         35.7610   48.1650   36.1840 N.am  148  PHE148     -0.1962
     57  CA        35.0630   47.1800   37.0150 C.3   148  PHE148      0.1771
     58  C         35.9660   46.4480   38.0120 C.2   148  PHE148      0.2620
     59  O         37.1890   46.5610   37.9640 O.2   148  PHE148     -0.2715
     60  CB        34.3560   46.1350   36.1450 C.3   148  PHE148      0.0574
     61  CG        33.2670   46.6990   35.2820 C.ar  148  PHE148     -0.0200
     62  CD1       33.5690   47.4920   34.1770 C.ar  148  PHE148     -0.0042
     63  CD2       31.9290   46.4600   35.5890 C.ar  148  PHE148     -0.0042
     64  CE1       32.5660   48.0330   33.3940 C.ar  148  PHE148     -0.0003
     65  CE2       30.9120   47.0020   34.8070 C.ar  148  PHE148     -0.0003
     66  CZ        31.2320   47.7880   33.7090 C.ar  148  PHE148     -0.0000
     67  N         35.3510   45.6860   38.9140 N.am  149  PHE149     -0.1960
     68  CA        36.1100   44.9680   39.9180 C.3   149  PHE149      0.1771
     69  C         35.7710   43.5040   40.0240 C.2   149  PHE149      0.2620
     70  O         34.6120   43.1100   40.0070 O.2   149  PHE149     -0.2715
     71  CB        35.9530   45.6420   41.2900 C.3   149  PHE149      0.0574
     72  CG        36.4430   47.0520   41.3140 C.ar  149  PHE149     -0.0200
     73  CD1       35.6930   48.0690   40.7420 C.ar  149  PHE149     -0.0042
     74  CD2       37.7060   47.3470   41.7910 C.ar  149  PHE149     -0.0042
     75  CE1       36.1980   49.3590   40.6400 C.ar  149  PHE149     -0.0003
     76  CE2       38.2210   48.6280   41.6940 C.ar  149  PHE149     -0.0003
     77  CZ        37.4670   49.6390   41.1170 C.ar  149  PHE149     -0.0000
     78  N         36.8190   42.7080   40.1430 N.am  150  ASN150     -0.1959
     79  CA        36.7210   41.2660   40.2490 C.3   150  ASN150      0.1804
     80  C         36.3150   40.8520   41.6710 C.2   150  ASN150      0.2463
     81  O         36.8940   41.3160   42.6550 O.2   150  ASN150     -0.2730
     82  CB        38.0820   40.6670   39.8430 C.3   150  ASN150      0.1195
     83  CG        38.1270   39.1570   39.9460 C.2   150  ASN150      0.2630
     84  OD1       37.1380   38.4720   39.6820 O.2   150  ASN150     -0.2716
     85  ND2       39.2980   38.6220   40.2950 N.am  150  ASN150     -0.0877
     86  N         35.2940   39.9880   41.7940 N.am  151  PRO151     -0.2727
     87  CA        34.5040   39.3880   40.7150 C.3   151  PRO151      0.1402
     88  C         33.4070   40.3360   40.2020 C.2   151  PRO151      0.2269
     89  O         32.5420   40.7670   40.9650 O.2   151  PRO151     -0.2865
     90  CB        33.9390   38.1470   41.3880 C.3   151  PRO151      0.0296
     91  CG        33.5940   38.7000   42.7390 C.3   151  PRO151      0.0237
     92  CD        34.9010   39.3990   43.0870 C.3   151  PRO151      0.0939
     93  N         30.6590   39.9160   38.4830 N.3   153  PRO153     -0.2102
     94  CA        29.2540   39.6150   38.7640 C.3   153  PRO153      0.1504
     95  C         28.8200   40.0100   40.1830 C.2   153  PRO153      0.2576
     96  O         27.6520   40.3180   40.4140 O.2   153  PRO153     -0.2718
     97  CB        29.1800   38.1040   38.5300 C.3   153  PRO153      0.0282
     98  CG        30.2800   37.8750   37.4940 C.3   153  PRO153      0.0208
     99  CD        31.3860   38.6840   38.1360 C.3   153  PRO153      0.0893
    100  N         29.7620   40.0170   41.1270 N.am  154  VAL154     -0.1966
    101  CA        29.4490   40.3520   42.5160 C.3   154  VAL154      0.1727
    102  C         29.7510   41.7680   42.9880 C.2   154  VAL154      0.2616
    103  O         28.9040   42.3900   43.6210 O.2   154  VAL154     -0.2715
    104  CB        30.1440   39.3760   43.4810 C.3   154  VAL154      0.0290
    105  CG1       29.9030   39.8000   44.9210 C.3   154  VAL154      0.0023
    106  CG2       29.6190   37.9650   43.2480 C.3   154  VAL154      0.0023
    107  N         30.9420   42.2850   42.6960 N.am  155  MET155     -0.1977
    108  CA        31.2950   43.6290   43.1570 C.3   155  MET155      0.1605
    109  C         30.4030   44.6860   42.5120 C.2   155  MET155      0.2287
    110  O         30.3550   44.8240   41.2910 O.2   155  MET155     -0.2864
    111  CB        32.7740   43.9160   42.8800 C.3   155  MET155      0.0413
    112  CG        33.7160   42.7900   43.3370 C.3   155  MET155      0.0598
    113  SD        33.5940   42.2960   45.0880 S.3   155  MET155     -0.1393
    114  CE        34.1080   43.8040   45.9080 C.3   155  MET155      0.0692
    115  N         39.9120   53.0630   43.8500 N.3   196  VAL196     -0.1231
    116  CA        40.2100   51.7970   44.5100 C.3   196  VAL196      0.1692
    117  C         41.6400   51.2630   44.3740 C.2   196  VAL196      0.2592
    118  O         42.3110   51.0440   45.3880 O.2   196  VAL196     -0.2718
    119  CB        39.2100   50.7100   44.0820 C.3   196  VAL196      0.0266
    120  CG1       39.4970   49.4030   44.8050 C.3   196  VAL196      0.0020
    121  CG2       37.8130   51.1600   44.4070 C.3   196  VAL196      0.0020
    122  N         42.1210   51.0510   43.1500 N.am  197  ASN197     -0.1974
    123  CA        43.4750   50.5320   42.9910 C.3   197  ASN197      0.1688
    124  C         44.5270   51.4370   43.6060 C.2   197  ASN197      0.2292
    125  O         45.5500   50.9560   44.0910 O.2   197  ASN197     -0.2864
    126  CB        43.8280   50.2950   41.5210 C.3   197  ASN197      0.1181
    127  CG        43.0650   49.1390   40.9140 C.2   197  ASN197      0.2629
    128  OD1       42.8380   48.1180   41.5640 O.2   197  ASN197     -0.2716
    129  ND2       42.6960   49.2760   39.6420 N.am  197  ASN197     -0.0877
    130  N         44.2210   50.5450   47.3740 N.3   200  LEU200     -0.1231
    131  CA        44.3500   49.1240   47.6570 C.3   200  LEU200      0.1693
    132  C         45.7100   48.5020   47.3210 C.2   200  LEU200      0.2591
    133  O         46.3030   47.7990   48.1500 O.2   200  LEU200     -0.2718
    134  CB        43.2520   48.3670   46.9230 C.3   200  LEU200      0.0284
    135  CG        43.1660   46.8530   47.1030 C.3   200  LEU200      0.0019
    136  CD1       42.9500   46.4990   48.5700 C.3   200  LEU200      0.0001
    137  CD2       42.0060   46.3340   46.2630 C.3   200  LEU200      0.0001
    138  N         46.2050   48.7550   46.1120 N.am  201  VAL201     -0.1980
    139  CA        47.4740   48.1860   45.6840 C.3   201  VAL201      0.1595
    140  C         48.6530   48.5550   46.5800 C.2   201  VAL201      0.2287
    141  O         49.3920   47.6790   47.0270 O.2   201  VAL201     -0.2864
    142  CB        47.7880   48.5770   44.2220 C.3   201  VAL201      0.0276
    143  CG1       49.1720   48.0970   43.8300 C.3   201  VAL201      0.0022
    144  CG2       46.7580   47.9510   43.3040 C.3   201  VAL201      0.0022
    145  N         37.3490   41.1410   53.9950 N.3   232  PRO232     -0.2102
    146  CA        36.8970   39.8350   53.5140 C.3   232  PRO232      0.1504
    147  C         38.0540   38.8960   53.2260 C.2   232  PRO232      0.2575
    148  O         37.8970   37.6750   53.2860 O.2   232  PRO232     -0.2718
    149  CB        36.1350   40.1910   52.2410 C.3   232  PRO232      0.0282
    150  CG        35.6640   41.5880   52.5150 C.3   232  PRO232      0.0208
    151  CD        36.9530   42.1730   53.0250 C.3   232  PRO232      0.0893
    152  N         39.2100   39.4670   52.8920 N.am  233  MET233     -0.1980
    153  CA        40.3850   38.6600   52.5930 C.3   233  MET233      0.1605
    154  C         41.6530   39.2920   53.1270 C.2   233  MET233      0.2287
    155  O         41.8230   40.5010   53.0440 O.2   233  MET233     -0.2864
    156  CB        40.5580   38.4780   51.0770 C.3   233  MET233      0.0413
    157  CG        39.4840   37.6570   50.3860 C.3   233  MET233      0.0598
    158  SD        39.7170   37.5170   48.5850 S.3   233  MET233     -0.1393
    159  CE        38.3720   36.4230   48.1510 C.3   233  MET233      0.0692
    160  N         44.1420   38.0110   48.8910 N.3   238  LEU238     -0.1245
    161  CA        43.6610   38.9410   47.8800 C.3   238  LEU238      0.1561
    162  C         44.6600   39.0220   46.7360 C.2   238  LEU238      0.2260
    163  O         44.2760   38.9550   45.5670 O.2   238  LEU238     -0.2867
    164  CB        43.4430   40.3280   48.4790 C.3   238  LEU238      0.0270
    165  CG        42.8410   41.3310   47.4970 C.3   238  LEU238      0.0019
    166  CD1       41.5650   40.7570   46.9160 C.3   238  LEU238      0.0001
    167  CD2       42.5570   42.6390   48.1780 C.3   238  LEU238      0.0001
    168  N         44.3520   36.3610   44.6080 N.3   241  TYR241     -0.1227
    169  CA        43.0370   36.3750   43.9950 C.3   241  TYR241      0.1736
    170  C         42.9820   37.3010   42.7830 C.2   241  TYR241      0.2595
    171  O         42.3270   36.9850   41.7980 O.2   241  TYR241     -0.2718
    172  CB        41.9970   36.8190   45.0280 C.3   241  TYR241      0.0548
    173  CG        40.5710   36.7360   44.5380 C.ar  241  TYR241     -0.0200
    174  CD1       39.9020   35.5170   44.4940 C.ar  241  TYR241     -0.0009
    175  CD2       39.9070   37.8700   44.0770 C.ar  241  TYR241     -0.0009
    176  CE1       38.5970   35.4270   43.9990 C.ar  241  TYR241      0.0417
    177  CE2       38.6080   37.7950   43.5790 C.ar  241  TYR241      0.0417
    178  CZ        37.9570   36.5690   43.5450 C.ar  241  TYR241      0.1957
    179  OH        36.6670   36.4850   43.0730 O.3   241  TYR241     -0.2866
    180  N         43.6510   38.4480   42.8670 N.am  242  VAL242     -0.1980
    181  CA        43.6680   39.4000   41.7660 C.3   242  VAL242      0.1595
    182  C         44.7830   39.0680   40.7810 C.2   242  VAL242      0.2287
    183  O         44.7800   39.5590   39.6550 O.2   242  VAL242     -0.2864
    184  CB        43.8930   40.8530   42.2430 C.3   242  VAL242      0.0276
    185  CG1       42.8650   41.2320   43.2840 C.3   242  VAL242      0.0022
    186  CG2       45.2910   41.0080   42.7840 C.3   242  VAL242      0.0022
    187  N         49.3400   40.3000   37.5860 N.3   246  THR246     -0.1218
    188  CA        48.4560   41.4340   37.3700 C.3   246  THR246      0.1862
    189  C         48.8590   42.6010   38.2770 C.2   246  THR246      0.2287
    190  O         48.8190   43.7660   37.8600 O.2   246  THR246     -0.2866
    191  CB        47.0010   41.0710   37.6950 C.3   246  THR246      0.1770
    192  OG1       46.6570   39.8390   37.0540 O.3   246  THR246     -0.2211
    193  CG2       46.0670   42.1640   37.2090 C.3   246  THR246      0.0375
    194  N         50.9240   46.5070   37.2530 N.3   250  ILE250     -0.1245
    195  CA        50.3950   47.8050   37.6380 C.3   250  ILE250      0.1561
    196  C         51.4120   48.5790   38.4810 C.2   250  ILE250      0.2260
    197  O         51.5710   49.7930   38.3270 O.2   250  ILE250     -0.2867
    198  CB        49.0830   47.6360   38.4270 C.3   250  ILE250      0.0252
    199  CG1       48.0640   46.9200   37.5410 C.3   250  ILE250      0.0019
    200  CG2       48.5550   48.9910   38.8780 C.3   250  ILE250      0.0019
    201  CD1       46.7420   46.6730   38.1880 C.3   250  ILE250      0.0001
@<TRIPOS>BOND
     1     3     4    2
     2     3     2    1
     3     1     2    1
     4     5     2    1
     5     5     6    1
     6    64    66   ar
     7    64    62   ar
     8    66    65   ar
     9    40    41    1
    10    62    61   ar
    11     6     7    1
    12    46    47    1
    13    65    63   ar
    14    41    42    1
    15    41    44    1
    16    42    43    2
    17    61    63   ar
    18    61    60    1
    19    47    50    1
    20    47    48    1
    21     8     7    1
    22     9    10    1
    23    45    44    1
    24    60    57    1
    25    56    48   am
    26    56    57    1
    27    50    51    1
    28    53    51   ar
    29    53    55   ar
    30    48    49    2
    31    13    10    1
    32    13    14    1
    33    51    52   ar
    34    10    11    1
    35    11    12    2
    36    55    54   ar
    37    57    58    1
    38   192   191    1
    39   193   191    1
    40   194   195    1
    41   188   187    1
    42   188   191    1
    43   188   189    1
    44    98    99    1
    45    98    97    1
    46   199   201    1
    47   199   198    1
    48   195   198    1
    49   195   196    1
    50    52    54   ar
    51   190   189    2
    52    59    58    2
    53    58    67   am
    54    99    93    1
    55   197   196    2
    56   198   200    1
    57    93    94    1
    58    15    16    1
    59    97    94    1
    60    94    95    1
    61    67    68    1
    62    30    28    1
    63   129   127   am
    64    28    29    1
    65    28    25    1
    66   183   182    2
    67    84    83    2
    68    82    83    1
    69    82    79    1
    70    16    19    1
    71    16    17    1
    72    68    69    1
    73    68    71    1
    74    24    25    1
    75    24    17   am
    76    83    85   am
    77    19    20    1
    78    70    69    2
    79    69    78   am
    80    78    79    1
    81    95    96    2
    82    95   100   am
    83    88    87    1
    84    88    89    2
    85    79    80    1
    86    26    25    1
    87    26    27    2
    88    17    18    2
    89    75    73   ar
    90    75    77   ar
    91    87    90    1
    92    87    86    1
    93    73    72   ar
    94   182   181    1
    95   127   126    1
    96   127   128    2
    97    77    76   ar
    98   100   101    1
    99    21    20    1
   100    21    22    1
   101    71    72    1
   102   110   109    2
   103    72    74   ar
   104    90    91    1
   105   126   123    1
   106    80    86   am
   107    80    81    2
   108    76    74   ar
   109   181   184    1
   110   181   180    1
   111    86    92    1
   112   171   170    2
   113    23    22    1
   114   184   186    1
   115   184   185    1
   116   109   108    1
   117   101   102    1
   118   101   104    1
   119   107   102   am
   120   107   108    1
   121    91    92    1
   122   170   180   am
   123   170   169    1
   124    31    32    1
   125   111   108    1
   126   111   112    1
   127   102   103    2
   128   123   122    1
   129   123   124    1
   130   179   178    1
   131   122   117   am
   132   106   104    1
   133   144   142    1
   134   112   113    1
   135   104   105    1
   136   178   177   ar
   137   178   176   ar
   138   177   175   ar
   139   124   125    2
   140   143   142    1
   141   115   116    1
   142   169   168    1
   143   169   172    1
   144   176   174   ar
   145   175   173   ar
   146   119   121    1
   147   119   116    1
   148   119   120    1
   149    32    35    1
   150    32    33    1
   151    35    36    1
   152   142   139    1
   153    33    34    2
   154   117   116    1
   155   117   118    2
   156   174   173   ar
   157   173   172    1
   158   113   114    1
   159    37    36    1
   160    37    38    1
   161   163   162    2
   162   139   138    1
   163   139   140    1
   164    39    38    1
   165   138   132   am
   166   137   135    1
   167   140   141    2
   168   162   161    1
   169   166   165    1
   170   134   135    1
   171   134   131    1
   172   135   136    1
   173   132   131    1
   174   132   133    2
   175   130   131    1
   176   165   167    1
   177   165   164    1
   178   161   164    1
   179   161   160    1
   180   159   158    1
   181   158   157    1
   182   157   156    1
   183   156   153    1
   184   149   150    1
   185   149   146    1
   186   150   151    1
   187   153   152    1
   188   153   154    1
   189   152   147   am
   190   151   145    1
   191   155   154    2
   192   147   148    2
   193   147   146    1
   194   146   145    1
